version 2
run net1000-1-20150717-18:54:00-1155
attr as 1
attr configname net1000
attr datetime 20150717-18:54:00
attr dnor 20
attr experiment net1000
attr inifile omnetpp.ini
attr iterationvars "$rhdrq=3, $dnor=20, $as=1"
attr iterationvars2 "$rhdrq=3, $dnor=20, $as=1, $repetition=1"
attr measurement "$rhdrq=3, $dnor=20, $as=1"
attr network Network1000
attr processid 1155
attr repetition 1
attr replication #1
attr resultdir results
attr rhdrq 3
attr runnumber 1
attr seedset 1

scalar . 	as 	1
scalar . 	dnor 	20
scalar . 	rhdrq 	3
scalar Network1000.node260 	rate_of_requesters 	1
scalar Network1000.node260 	number_of_resources 	55000
scalar Network1000.node260 	time_period 	1
scalar Network1000.node260 	number_of_messages 	18
scalar Network1000.node260 	discovery_latency 	108
scalar Network1000.node260 	number_of_desired_resources 	20
scalar Network1000.node260 	query_homogenity_rate 	33.333333333333
scalar Network1000.node260 	qrecord_time 	4822
scalar Network1000.node260 	discovery_resolution_rate 	100
scalar Network1000.node450 	rate_of_requesters 	1
scalar Network1000.node450 	number_of_resources 	55000
scalar Network1000.node450 	time_period 	1
scalar Network1000.node450 	number_of_messages 	18
scalar Network1000.node450 	discovery_latency 	6624
scalar Network1000.node450 	number_of_desired_resources 	20
scalar Network1000.node450 	query_homogenity_rate 	33.333333333333
scalar Network1000.node450 	qrecord_time 	11332
scalar Network1000.node450 	discovery_resolution_rate 	66.666666666667
scalar Network1000.node80 	rate_of_requesters 	1
scalar Network1000.node80 	number_of_resources 	55000
scalar Network1000.node80 	time_period 	1
scalar Network1000.node80 	number_of_messages 	15
scalar Network1000.node80 	discovery_latency 	6648
scalar Network1000.node80 	number_of_desired_resources 	20
scalar Network1000.node80 	query_homogenity_rate 	33.333333333333
scalar Network1000.node80 	qrecord_time 	11332
scalar Network1000.node80 	discovery_resolution_rate 	66.666666666667
scalar Network1000.node610 	rate_of_requesters 	1
scalar Network1000.node610 	number_of_resources 	55000
scalar Network1000.node610 	time_period 	1
scalar Network1000.node610 	number_of_messages 	17
scalar Network1000.node610 	discovery_latency 	6528
scalar Network1000.node610 	number_of_desired_resources 	20
scalar Network1000.node610 	query_homogenity_rate 	33.333333333333
scalar Network1000.node610 	qrecord_time 	11344
scalar Network1000.node610 	discovery_resolution_rate 	66.666666666667
scalar Network1000.node770 	rate_of_requesters 	1
scalar Network1000.node770 	number_of_resources 	55000
scalar Network1000.node770 	time_period 	1
scalar Network1000.node770 	number_of_messages 	48
scalar Network1000.node770 	discovery_latency 	6684
scalar Network1000.node770 	number_of_desired_resources 	20
scalar Network1000.node770 	query_homogenity_rate 	33.333333333333
scalar Network1000.node770 	qrecord_time 	11368
scalar Network1000.node770 	discovery_resolution_rate 	33.333333333333
scalar Network1000.node570 	rate_of_requesters 	1
scalar Network1000.node570 	number_of_resources 	55000
scalar Network1000.node570 	time_period 	1
scalar Network1000.node570 	number_of_messages 	7
scalar Network1000.node570 	discovery_latency 	6684
scalar Network1000.node570 	number_of_desired_resources 	20
scalar Network1000.node570 	query_homogenity_rate 	33.333333333333
scalar Network1000.node570 	qrecord_time 	11368
scalar Network1000.node570 	discovery_resolution_rate 	33.333333333333
scalar Network1000.node540 	rate_of_requesters 	1
scalar Network1000.node540 	number_of_resources 	55000
scalar Network1000.node540 	time_period 	1
scalar Network1000.node540 	number_of_messages 	59
scalar Network1000.node540 	discovery_latency 	6720
scalar Network1000.node540 	number_of_desired_resources 	20
scalar Network1000.node540 	query_homogenity_rate 	33.333333333333
scalar Network1000.node540 	qrecord_time 	11368
scalar Network1000.node540 	discovery_resolution_rate 	66.666666666667
scalar Network1000.node480 	rate_of_requesters 	1
scalar Network1000.node480 	number_of_resources 	55000
scalar Network1000.node480 	time_period 	1
scalar Network1000.node480 	number_of_messages 	23
scalar Network1000.node480 	discovery_latency 	6624
scalar Network1000.node480 	number_of_desired_resources 	20
scalar Network1000.node480 	query_homogenity_rate 	33.333333333333
scalar Network1000.node480 	qrecord_time 	11380
scalar Network1000.node480 	discovery_resolution_rate 	33.333333333333
scalar Network1000.node180 	rate_of_requesters 	1
scalar Network1000.node180 	number_of_resources 	55000
scalar Network1000.node180 	time_period 	1
scalar Network1000.node180 	number_of_messages 	12
scalar Network1000.node180 	discovery_latency 	6648
scalar Network1000.node180 	number_of_desired_resources 	20
scalar Network1000.node180 	query_homogenity_rate 	33.333333333333
scalar Network1000.node180 	qrecord_time 	11386
scalar Network1000.node180 	discovery_resolution_rate 	66.666666666667
scalar Network1000.node470 	rate_of_requesters 	1
scalar Network1000.node470 	number_of_resources 	55000
scalar Network1000.node470 	time_period 	1
scalar Network1000.node470 	number_of_messages 	14
scalar Network1000.node470 	discovery_latency 	6636
scalar Network1000.node470 	number_of_desired_resources 	20
scalar Network1000.node470 	query_homogenity_rate 	33.333333333333
scalar Network1000.node470 	qrecord_time 	11386
scalar Network1000.node470 	discovery_resolution_rate 	33.333333333333
scalar Network1000.node740 	rate_of_requesters 	1
scalar Network1000.node740 	number_of_resources 	55000
scalar Network1000.node740 	time_period 	1
scalar Network1000.node740 	number_of_messages 	28
scalar Network1000.node740 	discovery_latency 	6696
scalar Network1000.node740 	number_of_desired_resources 	20
scalar Network1000.node740 	query_homogenity_rate 	33.333333333333
scalar Network1000.node740 	qrecord_time 	11404
scalar Network1000.node740 	discovery_resolution_rate 	66.666666666667
scalar Network1000.node360 	rate_of_requesters 	1
scalar Network1000.node360 	number_of_resources 	55000
scalar Network1000.node360 	time_period 	1
scalar Network1000.node360 	number_of_messages 	20
scalar Network1000.node360 	discovery_latency 	6696
scalar Network1000.node360 	number_of_desired_resources 	20
scalar Network1000.node360 	query_homogenity_rate 	33.333333333333
scalar Network1000.node360 	qrecord_time 	11410
scalar Network1000.node360 	discovery_resolution_rate 	66.666666666667
scalar Network1000.node580 	rate_of_requesters 	1
scalar Network1000.node580 	number_of_resources 	55000
scalar Network1000.node580 	time_period 	1
scalar Network1000.node580 	number_of_messages 	14
scalar Network1000.node580 	discovery_latency 	6768
scalar Network1000.node580 	number_of_desired_resources 	20
scalar Network1000.node580 	query_homogenity_rate 	33.333333333333
scalar Network1000.node580 	qrecord_time 	11434
scalar Network1000.node580 	discovery_resolution_rate 	33.333333333333
scalar Network1000.node550 	rate_of_requesters 	1
scalar Network1000.node550 	number_of_resources 	55000
scalar Network1000.node550 	time_period 	1
scalar Network1000.node550 	number_of_messages 	10
scalar Network1000.node550 	discovery_latency 	6720
scalar Network1000.node550 	number_of_desired_resources 	20
scalar Network1000.node550 	query_homogenity_rate 	33.333333333333
scalar Network1000.node550 	qrecord_time 	11440
scalar Network1000.node550 	discovery_resolution_rate 	33.333333333333
scalar Network1000.node240 	rate_of_requesters 	1
scalar Network1000.node240 	number_of_resources 	55000
scalar Network1000.node240 	time_period 	1
scalar Network1000.node240 	number_of_messages 	14
scalar Network1000.node240 	discovery_latency 	6696
scalar Network1000.node240 	number_of_desired_resources 	20
scalar Network1000.node240 	query_homogenity_rate 	33.333333333333
scalar Network1000.node240 	qrecord_time 	11446
scalar Network1000.node240 	discovery_resolution_rate 	33.333333333333
scalar Network1000.node860 	rate_of_requesters 	1
scalar Network1000.node860 	number_of_resources 	55000
scalar Network1000.node860 	time_period 	2
scalar Network1000.node860 	number_of_messages 	40
scalar Network1000.node860 	discovery_latency 	6624
scalar Network1000.node860 	number_of_desired_resources 	20
scalar Network1000.node860 	query_homogenity_rate 	33.333333333333
scalar Network1000.node860 	qrecord_time 	11446.485140906
scalar Network1000.node860 	discovery_resolution_rate 	33.333333333333
scalar Network1000.node280 	rate_of_requesters 	1
scalar Network1000.node280 	number_of_resources 	55000
scalar Network1000.node280 	time_period 	1
scalar Network1000.node280 	number_of_messages 	21
scalar Network1000.node280 	discovery_latency 	6732
scalar Network1000.node280 	number_of_desired_resources 	20
scalar Network1000.node280 	query_homogenity_rate 	33.333333333333
scalar Network1000.node280 	qrecord_time 	11464
scalar Network1000.node280 	discovery_resolution_rate 	33.333333333333
scalar Network1000.node980 	rate_of_requesters 	1
scalar Network1000.node980 	number_of_resources 	55000
scalar Network1000.node980 	time_period 	1
scalar Network1000.node980 	number_of_messages 	10
scalar Network1000.node980 	discovery_latency 	6720
scalar Network1000.node980 	number_of_desired_resources 	20
scalar Network1000.node980 	query_homogenity_rate 	33.333333333333
scalar Network1000.node980 	qrecord_time 	11470
scalar Network1000.node980 	discovery_resolution_rate 	33.333333333333
scalar Network1000.node320 	rate_of_requesters 	1
scalar Network1000.node320 	number_of_resources 	55000
scalar Network1000.node320 	time_period 	1
scalar Network1000.node320 	number_of_messages 	15
scalar Network1000.node320 	discovery_latency 	6720
scalar Network1000.node320 	number_of_desired_resources 	20
scalar Network1000.node320 	query_homogenity_rate 	33.333333333333
scalar Network1000.node320 	qrecord_time 	11470
scalar Network1000.node320 	discovery_resolution_rate 	33.333333333333
scalar Network1000.node100 	rate_of_requesters 	1
scalar Network1000.node100 	number_of_resources 	55000
scalar Network1000.node100 	time_period 	1
scalar Network1000.node100 	number_of_messages 	41
scalar Network1000.node100 	discovery_latency 	6744
scalar Network1000.node100 	number_of_desired_resources 	20
scalar Network1000.node100 	query_homogenity_rate 	33.333333333333
scalar Network1000.node100 	qrecord_time 	11482
scalar Network1000.node100 	discovery_resolution_rate 	33.333333333333
scalar Network1000.node530 	rate_of_requesters 	1
scalar Network1000.node530 	number_of_resources 	55000
scalar Network1000.node530 	time_period 	1
scalar Network1000.node530 	number_of_messages 	13
scalar Network1000.node530 	discovery_latency 	6756
scalar Network1000.node530 	number_of_desired_resources 	20
scalar Network1000.node530 	query_homogenity_rate 	33.333333333333
scalar Network1000.node530 	qrecord_time 	11482
scalar Network1000.node530 	discovery_resolution_rate 	33.333333333333
scalar Network1000.node600 	rate_of_requesters 	1
scalar Network1000.node600 	number_of_resources 	55000
scalar Network1000.node600 	time_period 	1
scalar Network1000.node600 	number_of_messages 	37
scalar Network1000.node600 	discovery_latency 	6744
scalar Network1000.node600 	number_of_desired_resources 	20
scalar Network1000.node600 	query_homogenity_rate 	33.333333333333
scalar Network1000.node600 	qrecord_time 	11482
scalar Network1000.node600 	discovery_resolution_rate 	33.333333333333
scalar Network1000.node30 	rate_of_requesters 	1
scalar Network1000.node30 	number_of_resources 	55000
scalar Network1000.node30 	time_period 	1
scalar Network1000.node30 	number_of_messages 	5
scalar Network1000.node30 	discovery_latency 	6780
scalar Network1000.node30 	number_of_desired_resources 	20
scalar Network1000.node30 	query_homogenity_rate 	33.333333333333
scalar Network1000.node30 	qrecord_time 	11494
scalar Network1000.node30 	discovery_resolution_rate 	33.333333333333
scalar Network1000.node210 	rate_of_requesters 	1
scalar Network1000.node210 	number_of_resources 	55000
scalar Network1000.node210 	time_period 	1
scalar Network1000.node210 	number_of_messages 	45
scalar Network1000.node210 	discovery_latency 	6732
scalar Network1000.node210 	number_of_desired_resources 	20
scalar Network1000.node210 	query_homogenity_rate 	33.333333333333
scalar Network1000.node210 	qrecord_time 	11500
scalar Network1000.node210 	discovery_resolution_rate 	33.333333333333
scalar Network1000.node850 	rate_of_requesters 	1
scalar Network1000.node850 	number_of_resources 	55000
scalar Network1000.node850 	time_period 	1
scalar Network1000.node850 	number_of_messages 	35
scalar Network1000.node850 	discovery_latency 	6744
scalar Network1000.node850 	number_of_desired_resources 	20
scalar Network1000.node850 	query_homogenity_rate 	33.333333333333
scalar Network1000.node850 	qrecord_time 	11506
scalar Network1000.node850 	discovery_resolution_rate 	66.666666666667
scalar Network1000.node590 	rate_of_requesters 	1
scalar Network1000.node590 	number_of_resources 	55000
scalar Network1000.node590 	time_period 	1
scalar Network1000.node590 	number_of_messages 	21
scalar Network1000.node590 	discovery_latency 	6768
scalar Network1000.node590 	number_of_desired_resources 	20
scalar Network1000.node590 	query_homogenity_rate 	33.333333333333
scalar Network1000.node590 	qrecord_time 	11506
scalar Network1000.node590 	discovery_resolution_rate 	66.666666666667
scalar Network1000.node520 	rate_of_requesters 	1
scalar Network1000.node520 	number_of_resources 	55000
scalar Network1000.node520 	time_period 	1
scalar Network1000.node520 	number_of_messages 	19
scalar Network1000.node520 	discovery_latency 	6780
scalar Network1000.node520 	number_of_desired_resources 	20
scalar Network1000.node520 	query_homogenity_rate 	33.333333333333
scalar Network1000.node520 	qrecord_time 	11524
scalar Network1000.node520 	discovery_resolution_rate 	33.333333333333
scalar Network1000.node10 	rate_of_requesters 	1
scalar Network1000.node10 	number_of_resources 	55000
scalar Network1000.node10 	time_period 	1
scalar Network1000.node10 	number_of_messages 	16
scalar Network1000.node10 	discovery_latency 	6864
scalar Network1000.node10 	number_of_desired_resources 	20
scalar Network1000.node10 	query_homogenity_rate 	33.333333333333
scalar Network1000.node10 	qrecord_time 	11554
scalar Network1000.node10 	discovery_resolution_rate 	33.333333333333
scalar Network1000.node860 	rate_of_requesters 	1
scalar Network1000.node860 	number_of_resources 	55000
scalar Network1000.node860 	time_period 	1
scalar Network1000.node860 	number_of_messages 	12
scalar Network1000.node860 	discovery_latency 	6828
scalar Network1000.node860 	number_of_desired_resources 	20
scalar Network1000.node860 	query_homogenity_rate 	33.333333333333
scalar Network1000.node860 	qrecord_time 	11560
scalar Network1000.node860 	discovery_resolution_rate 	33.333333333333
scalar Network1000.node20 	rate_of_requesters 	1
scalar Network1000.node20 	number_of_resources 	55000
scalar Network1000.node20 	time_period 	1
scalar Network1000.node20 	number_of_messages 	4
scalar Network1000.node20 	discovery_latency 	6840
scalar Network1000.node20 	number_of_desired_resources 	20
scalar Network1000.node20 	query_homogenity_rate 	33.333333333333
scalar Network1000.node20 	qrecord_time 	11560
scalar Network1000.node20 	discovery_resolution_rate 	33.333333333333
scalar Network1000.node60 	rate_of_requesters 	1
scalar Network1000.node60 	number_of_resources 	55000
scalar Network1000.node60 	time_period 	1
scalar Network1000.node60 	number_of_messages 	5
scalar Network1000.node60 	discovery_latency 	6852
scalar Network1000.node60 	number_of_desired_resources 	20
scalar Network1000.node60 	query_homogenity_rate 	33.333333333333
scalar Network1000.node60 	qrecord_time 	11566
scalar Network1000.node60 	discovery_resolution_rate 	33.333333333333
scalar Network1000.node420 	rate_of_requesters 	1
scalar Network1000.node420 	number_of_resources 	55000
scalar Network1000.node420 	time_period 	1
scalar Network1000.node420 	number_of_messages 	316
scalar Network1000.node420 	discovery_latency 	6900
scalar Network1000.node420 	number_of_desired_resources 	20
scalar Network1000.node420 	query_homogenity_rate 	33.333333333333
scalar Network1000.node420 	qrecord_time 	11590
scalar Network1000.node420 	discovery_resolution_rate 	50
scalar Network1000.node40 	rate_of_requesters 	1
scalar Network1000.node40 	number_of_resources 	55000
scalar Network1000.node40 	time_period 	1
scalar Network1000.node40 	number_of_messages 	35
scalar Network1000.node40 	discovery_latency 	6828
scalar Network1000.node40 	number_of_desired_resources 	20
scalar Network1000.node40 	query_homogenity_rate 	33.333333333333
scalar Network1000.node40 	qrecord_time 	11596
scalar Network1000.node40 	discovery_resolution_rate 	33.333333333333
scalar Network1000.node160 	rate_of_requesters 	1
scalar Network1000.node160 	number_of_resources 	55000
scalar Network1000.node160 	time_period 	1
scalar Network1000.node160 	number_of_messages 	3
scalar Network1000.node160 	discovery_latency 	6876
scalar Network1000.node160 	number_of_desired_resources 	20
scalar Network1000.node160 	query_homogenity_rate 	33.333333333333
scalar Network1000.node160 	qrecord_time 	11596
scalar Network1000.node160 	discovery_resolution_rate 	33.333333333333
scalar Network1000.node760 	rate_of_requesters 	1
scalar Network1000.node760 	number_of_resources 	55000
scalar Network1000.node760 	time_period 	1
scalar Network1000.node760 	number_of_messages 	338
scalar Network1000.node760 	discovery_latency 	6828
scalar Network1000.node760 	number_of_desired_resources 	20
scalar Network1000.node760 	query_homogenity_rate 	33.333333333333
scalar Network1000.node760 	qrecord_time 	11608
scalar Network1000.node760 	discovery_resolution_rate 	50
scalar Network1000.node610 	rate_of_requesters 	1
scalar Network1000.node610 	number_of_resources 	55000
scalar Network1000.node610 	time_period 	2
scalar Network1000.node610 	number_of_messages 	2
scalar Network1000.node610 	discovery_latency 	6804
scalar Network1000.node610 	number_of_desired_resources 	20
scalar Network1000.node610 	query_homogenity_rate 	33.333333333333
scalar Network1000.node610 	qrecord_time 	11637.295245231
scalar Network1000.node610 	discovery_resolution_rate 	0
scalar Network1000.node430 	rate_of_requesters 	1
scalar Network1000.node430 	number_of_resources 	55000
scalar Network1000.node430 	time_period 	1
scalar Network1000.node430 	number_of_messages 	9
scalar Network1000.node430 	discovery_latency 	6852
scalar Network1000.node430 	number_of_desired_resources 	20
scalar Network1000.node430 	query_homogenity_rate 	33.333333333333
scalar Network1000.node430 	qrecord_time 	11644
scalar Network1000.node430 	discovery_resolution_rate 	33.333333333333
scalar Network1000.node250 	rate_of_requesters 	1
scalar Network1000.node250 	number_of_resources 	55000
scalar Network1000.node250 	time_period 	1
scalar Network1000.node250 	number_of_messages 	2
scalar Network1000.node250 	discovery_latency 	6984
scalar Network1000.node250 	number_of_desired_resources 	20
scalar Network1000.node250 	query_homogenity_rate 	33.333333333333
scalar Network1000.node250 	qrecord_time 	11650
scalar Network1000.node250 	discovery_resolution_rate 	0
scalar Network1000.node220 	rate_of_requesters 	1
scalar Network1000.node220 	number_of_resources 	55000
scalar Network1000.node220 	time_period 	1
scalar Network1000.node220 	number_of_messages 	41
scalar Network1000.node220 	discovery_latency 	6924
scalar Network1000.node220 	number_of_desired_resources 	20
scalar Network1000.node220 	query_homogenity_rate 	33.333333333333
scalar Network1000.node220 	qrecord_time 	11656
scalar Network1000.node220 	discovery_resolution_rate 	66.666666666667
scalar Network1000.node190 	rate_of_requesters 	1
scalar Network1000.node190 	number_of_resources 	55000
scalar Network1000.node190 	time_period 	1
scalar Network1000.node190 	number_of_messages 	16
scalar Network1000.node190 	discovery_latency 	7008
scalar Network1000.node190 	number_of_desired_resources 	20
scalar Network1000.node190 	query_homogenity_rate 	33.333333333333
scalar Network1000.node190 	qrecord_time 	11674
scalar Network1000.node190 	discovery_resolution_rate 	33.333333333333
scalar Network1000.node290 	rate_of_requesters 	1
scalar Network1000.node290 	number_of_resources 	55000
scalar Network1000.node290 	time_period 	1
scalar Network1000.node290 	number_of_messages 	296
scalar Network1000.node290 	discovery_latency 	6984
scalar Network1000.node290 	number_of_desired_resources 	20
scalar Network1000.node290 	query_homogenity_rate 	33.333333333333
scalar Network1000.node290 	qrecord_time 	11710
scalar Network1000.node290 	discovery_resolution_rate 	16.666666666667
scalar Network1000.node790 	rate_of_requesters 	1
scalar Network1000.node790 	number_of_resources 	55000
scalar Network1000.node790 	time_period 	1
scalar Network1000.node790 	number_of_messages 	6
scalar Network1000.node790 	discovery_latency 	7008
scalar Network1000.node790 	number_of_desired_resources 	20
scalar Network1000.node790 	query_homogenity_rate 	33.333333333333
scalar Network1000.node790 	qrecord_time 	11728
scalar Network1000.node790 	discovery_resolution_rate 	33.333333333333
scalar Network1000.node940 	rate_of_requesters 	1
scalar Network1000.node940 	number_of_resources 	55000
scalar Network1000.node940 	time_period 	1
scalar Network1000.node940 	number_of_messages 	5
scalar Network1000.node940 	discovery_latency 	7080
scalar Network1000.node940 	number_of_desired_resources 	20
scalar Network1000.node940 	query_homogenity_rate 	33.333333333333
scalar Network1000.node940 	qrecord_time 	11746
scalar Network1000.node940 	discovery_resolution_rate 	33.333333333333
scalar Network1000.node870 	rate_of_requesters 	1
scalar Network1000.node870 	number_of_resources 	55000
scalar Network1000.node870 	time_period 	1
scalar Network1000.node870 	number_of_messages 	6
scalar Network1000.node870 	discovery_latency 	6984
scalar Network1000.node870 	number_of_desired_resources 	20
scalar Network1000.node870 	query_homogenity_rate 	33.333333333333
scalar Network1000.node870 	qrecord_time 	11758
scalar Network1000.node870 	discovery_resolution_rate 	33.333333333333
scalar Network1000.node450 	rate_of_requesters 	1
scalar Network1000.node450 	number_of_resources 	55000
scalar Network1000.node450 	time_period 	2
scalar Network1000.node450 	number_of_messages 	12
scalar Network1000.node450 	discovery_latency 	6900
scalar Network1000.node450 	number_of_desired_resources 	20
scalar Network1000.node450 	query_homogenity_rate 	33.333333333333
scalar Network1000.node450 	qrecord_time 	11768.339772218
scalar Network1000.node450 	discovery_resolution_rate 	33.333333333333
scalar Network1000.node710 	rate_of_requesters 	1
scalar Network1000.node710 	number_of_resources 	55000
scalar Network1000.node710 	time_period 	1
scalar Network1000.node710 	number_of_messages 	2
scalar Network1000.node710 	discovery_latency 	7020
scalar Network1000.node710 	number_of_desired_resources 	20
scalar Network1000.node710 	query_homogenity_rate 	33.333333333333
scalar Network1000.node710 	qrecord_time 	11794
scalar Network1000.node710 	discovery_resolution_rate 	0
scalar Network1000.node400 	rate_of_requesters 	1
scalar Network1000.node400 	number_of_resources 	55000
scalar Network1000.node400 	time_period 	1
scalar Network1000.node400 	number_of_messages 	10
scalar Network1000.node400 	discovery_latency 	7140
scalar Network1000.node400 	number_of_desired_resources 	20
scalar Network1000.node400 	query_homogenity_rate 	33.333333333333
scalar Network1000.node400 	qrecord_time 	11806
scalar Network1000.node400 	discovery_resolution_rate 	33.333333333333
scalar Network1000.node330 	rate_of_requesters 	1
scalar Network1000.node330 	number_of_resources 	55000
scalar Network1000.node330 	time_period 	1
scalar Network1000.node330 	number_of_messages 	2
scalar Network1000.node330 	discovery_latency 	7104
scalar Network1000.node330 	number_of_desired_resources 	20
scalar Network1000.node330 	query_homogenity_rate 	33.333333333333
scalar Network1000.node330 	qrecord_time 	11818
scalar Network1000.node330 	discovery_resolution_rate 	0
scalar Network1000.node960 	rate_of_requesters 	1
scalar Network1000.node960 	number_of_resources 	55000
scalar Network1000.node960 	time_period 	1
scalar Network1000.node960 	number_of_messages 	10
scalar Network1000.node960 	discovery_latency 	7116
scalar Network1000.node960 	number_of_desired_resources 	20
scalar Network1000.node960 	query_homogenity_rate 	33.333333333333
scalar Network1000.node960 	qrecord_time 	11824
scalar Network1000.node960 	discovery_resolution_rate 	33.333333333333
scalar Network1000.node900 	rate_of_requesters 	1
scalar Network1000.node900 	number_of_resources 	55000
scalar Network1000.node900 	time_period 	1
scalar Network1000.node900 	number_of_messages 	2
scalar Network1000.node900 	discovery_latency 	7056
scalar Network1000.node900 	number_of_desired_resources 	20
scalar Network1000.node900 	query_homogenity_rate 	33.333333333333
scalar Network1000.node900 	qrecord_time 	11824
scalar Network1000.node900 	discovery_resolution_rate 	0
scalar Network1000.node660 	rate_of_requesters 	1
scalar Network1000.node660 	number_of_resources 	55000
scalar Network1000.node660 	time_period 	1
scalar Network1000.node660 	number_of_messages 	8
scalar Network1000.node660 	discovery_latency 	7164
scalar Network1000.node660 	number_of_desired_resources 	20
scalar Network1000.node660 	query_homogenity_rate 	33.333333333333
scalar Network1000.node660 	qrecord_time 	11830
scalar Network1000.node660 	discovery_resolution_rate 	33.333333333333
scalar Network1000.node50 	rate_of_requesters 	1
scalar Network1000.node50 	number_of_resources 	55000
scalar Network1000.node50 	time_period 	1
scalar Network1000.node50 	number_of_messages 	310
scalar Network1000.node50 	discovery_latency 	7164
scalar Network1000.node50 	number_of_desired_resources 	20
scalar Network1000.node50 	query_homogenity_rate 	33.333333333333
scalar Network1000.node50 	qrecord_time 	11830
scalar Network1000.node50 	discovery_resolution_rate 	50
scalar Network1000.node500 	rate_of_requesters 	1
scalar Network1000.node500 	number_of_resources 	55000
scalar Network1000.node500 	time_period 	1
scalar Network1000.node500 	number_of_messages 	19
scalar Network1000.node500 	discovery_latency 	7128
scalar Network1000.node500 	number_of_desired_resources 	20
scalar Network1000.node500 	query_homogenity_rate 	33.333333333333
scalar Network1000.node500 	qrecord_time 	11842
scalar Network1000.node500 	discovery_resolution_rate 	66.666666666667
scalar Network1000.node920 	rate_of_requesters 	1
scalar Network1000.node920 	number_of_resources 	55000
scalar Network1000.node920 	time_period 	1
scalar Network1000.node920 	number_of_messages 	2
scalar Network1000.node920 	discovery_latency 	7116
scalar Network1000.node920 	number_of_desired_resources 	20
scalar Network1000.node920 	query_homogenity_rate 	33.333333333333
scalar Network1000.node920 	qrecord_time 	11842
scalar Network1000.node920 	discovery_resolution_rate 	0
scalar Network1000.node680 	rate_of_requesters 	1
scalar Network1000.node680 	number_of_resources 	55000
scalar Network1000.node680 	time_period 	1
scalar Network1000.node680 	number_of_messages 	2
scalar Network1000.node680 	discovery_latency 	7176
scalar Network1000.node680 	number_of_desired_resources 	20
scalar Network1000.node680 	query_homogenity_rate 	33.333333333333
scalar Network1000.node680 	qrecord_time 	11842
scalar Network1000.node680 	discovery_resolution_rate 	0
scalar Network1000.node840 	rate_of_requesters 	1
scalar Network1000.node840 	number_of_resources 	55000
scalar Network1000.node840 	time_period 	1
scalar Network1000.node840 	number_of_messages 	10
scalar Network1000.node840 	discovery_latency 	7164
scalar Network1000.node840 	number_of_desired_resources 	20
scalar Network1000.node840 	query_homogenity_rate 	33.333333333333
scalar Network1000.node840 	qrecord_time 	11848
scalar Network1000.node840 	discovery_resolution_rate 	33.333333333333
scalar Network1000.node670 	rate_of_requesters 	1
scalar Network1000.node670 	number_of_resources 	55000
scalar Network1000.node670 	time_period 	1
scalar Network1000.node670 	number_of_messages 	2
scalar Network1000.node670 	discovery_latency 	7164
scalar Network1000.node670 	number_of_desired_resources 	20
scalar Network1000.node670 	query_homogenity_rate 	33.333333333333
scalar Network1000.node670 	qrecord_time 	11848
scalar Network1000.node670 	discovery_resolution_rate 	0
scalar Network1000.node780 	rate_of_requesters 	1
scalar Network1000.node780 	number_of_resources 	55000
scalar Network1000.node780 	time_period 	1
scalar Network1000.node780 	number_of_messages 	20
scalar Network1000.node780 	discovery_latency 	7128
scalar Network1000.node780 	number_of_desired_resources 	20
scalar Network1000.node780 	query_homogenity_rate 	33.333333333333
scalar Network1000.node780 	qrecord_time 	11860
scalar Network1000.node780 	discovery_resolution_rate 	33.333333333333
scalar Network1000.node350 	rate_of_requesters 	1
scalar Network1000.node350 	number_of_resources 	55000
scalar Network1000.node350 	time_period 	1
scalar Network1000.node350 	number_of_messages 	0
scalar Network1000.node350 	discovery_latency 	7140
scalar Network1000.node350 	number_of_desired_resources 	20
scalar Network1000.node350 	query_homogenity_rate 	33.333333333333
scalar Network1000.node350 	qrecord_time 	11860
scalar Network1000.node350 	discovery_resolution_rate 	0
scalar Network1000.node140 	rate_of_requesters 	1
scalar Network1000.node140 	number_of_resources 	55000
scalar Network1000.node140 	time_period 	1
scalar Network1000.node140 	number_of_messages 	2
scalar Network1000.node140 	discovery_latency 	7164
scalar Network1000.node140 	number_of_desired_resources 	20
scalar Network1000.node140 	query_homogenity_rate 	33.333333333333
scalar Network1000.node140 	qrecord_time 	11872
scalar Network1000.node140 	discovery_resolution_rate 	0
scalar Network1000.node0 	rate_of_requesters 	1
scalar Network1000.node0 	number_of_resources 	55000
scalar Network1000.node0 	time_period 	1
scalar Network1000.node0 	number_of_messages 	2
scalar Network1000.node0 	discovery_latency 	7164
scalar Network1000.node0 	number_of_desired_resources 	20
scalar Network1000.node0 	query_homogenity_rate 	33.333333333333
scalar Network1000.node0 	qrecord_time 	11872
scalar Network1000.node0 	discovery_resolution_rate 	0
scalar Network1000.node170 	rate_of_requesters 	1
scalar Network1000.node170 	number_of_resources 	55000
scalar Network1000.node170 	time_period 	1
scalar Network1000.node170 	number_of_messages 	2
scalar Network1000.node170 	discovery_latency 	7164
scalar Network1000.node170 	number_of_desired_resources 	20
scalar Network1000.node170 	query_homogenity_rate 	33.333333333333
scalar Network1000.node170 	qrecord_time 	11872
scalar Network1000.node170 	discovery_resolution_rate 	0
scalar Network1000.node120 	rate_of_requesters 	1
scalar Network1000.node120 	number_of_resources 	55000
scalar Network1000.node120 	time_period 	1
scalar Network1000.node120 	number_of_messages 	6
scalar Network1000.node120 	discovery_latency 	7164
scalar Network1000.node120 	number_of_desired_resources 	20
scalar Network1000.node120 	query_homogenity_rate 	33.333333333333
scalar Network1000.node120 	qrecord_time 	11878
scalar Network1000.node120 	discovery_resolution_rate 	33.333333333333
scalar Network1000.node800 	rate_of_requesters 	1
scalar Network1000.node800 	number_of_resources 	55000
scalar Network1000.node800 	time_period 	1
scalar Network1000.node800 	number_of_messages 	2
scalar Network1000.node800 	discovery_latency 	7140
scalar Network1000.node800 	number_of_desired_resources 	20
scalar Network1000.node800 	query_homogenity_rate 	33.333333333333
scalar Network1000.node800 	qrecord_time 	11890
scalar Network1000.node800 	discovery_resolution_rate 	0
scalar Network1000.node750 	rate_of_requesters 	1
scalar Network1000.node750 	number_of_resources 	55000
scalar Network1000.node750 	time_period 	1
scalar Network1000.node750 	number_of_messages 	5
scalar Network1000.node750 	discovery_latency 	7224
scalar Network1000.node750 	number_of_desired_resources 	20
scalar Network1000.node750 	query_homogenity_rate 	33.333333333333
scalar Network1000.node750 	qrecord_time 	11890
scalar Network1000.node750 	discovery_resolution_rate 	33.333333333333
scalar Network1000.node830 	rate_of_requesters 	1
scalar Network1000.node830 	number_of_resources 	55000
scalar Network1000.node830 	time_period 	1
scalar Network1000.node830 	number_of_messages 	2
scalar Network1000.node830 	discovery_latency 	7140
scalar Network1000.node830 	number_of_desired_resources 	20
scalar Network1000.node830 	query_homogenity_rate 	33.333333333333
scalar Network1000.node830 	qrecord_time 	11896
scalar Network1000.node830 	discovery_resolution_rate 	0
scalar Network1000.node370 	rate_of_requesters 	1
scalar Network1000.node370 	number_of_resources 	55000
scalar Network1000.node370 	time_period 	1
scalar Network1000.node370 	number_of_messages 	2
scalar Network1000.node370 	discovery_latency 	7236
scalar Network1000.node370 	number_of_desired_resources 	20
scalar Network1000.node370 	query_homogenity_rate 	33.333333333333
scalar Network1000.node370 	qrecord_time 	11902
scalar Network1000.node370 	discovery_resolution_rate 	0
scalar Network1000.node970 	rate_of_requesters 	1
scalar Network1000.node970 	number_of_resources 	55000
scalar Network1000.node970 	time_period 	1
scalar Network1000.node970 	number_of_messages 	2
scalar Network1000.node970 	discovery_latency 	7152
scalar Network1000.node970 	number_of_desired_resources 	20
scalar Network1000.node970 	query_homogenity_rate 	33.333333333333
scalar Network1000.node970 	qrecord_time 	11902
scalar Network1000.node970 	discovery_resolution_rate 	0
scalar Network1000.node390 	rate_of_requesters 	1
scalar Network1000.node390 	number_of_resources 	55000
scalar Network1000.node390 	time_period 	1
scalar Network1000.node390 	number_of_messages 	299
scalar Network1000.node390 	discovery_latency 	7164
scalar Network1000.node390 	number_of_desired_resources 	20
scalar Network1000.node390 	query_homogenity_rate 	33.333333333333
scalar Network1000.node390 	qrecord_time 	11914
scalar Network1000.node390 	discovery_resolution_rate 	50
scalar Network1000.node130 	rate_of_requesters 	1
scalar Network1000.node130 	number_of_resources 	55000
scalar Network1000.node130 	time_period 	1
scalar Network1000.node130 	number_of_messages 	8
scalar Network1000.node130 	discovery_latency 	7248
scalar Network1000.node130 	number_of_desired_resources 	20
scalar Network1000.node130 	query_homogenity_rate 	33.333333333333
scalar Network1000.node130 	qrecord_time 	11920
scalar Network1000.node130 	discovery_resolution_rate 	33.333333333333
scalar Network1000.node980 	rate_of_requesters 	1
scalar Network1000.node980 	number_of_resources 	55000
scalar Network1000.node980 	time_period 	2
scalar Network1000.node980 	number_of_messages 	2
scalar Network1000.node980 	discovery_latency 	7092
scalar Network1000.node980 	number_of_desired_resources 	20
scalar Network1000.node980 	query_homogenity_rate 	33.333333333333
scalar Network1000.node980 	qrecord_time 	11927.926061822
scalar Network1000.node980 	discovery_resolution_rate 	0
scalar Network1000.node270 	rate_of_requesters 	1
scalar Network1000.node270 	number_of_resources 	55000
scalar Network1000.node270 	time_period 	1
scalar Network1000.node270 	number_of_messages 	5
scalar Network1000.node270 	discovery_latency 	7224
scalar Network1000.node270 	number_of_desired_resources 	20
scalar Network1000.node270 	query_homogenity_rate 	33.333333333333
scalar Network1000.node270 	qrecord_time 	11932
scalar Network1000.node270 	discovery_resolution_rate 	33.333333333333
scalar Network1000.node490 	rate_of_requesters 	1
scalar Network1000.node490 	number_of_resources 	55000
scalar Network1000.node490 	time_period 	1
scalar Network1000.node490 	number_of_messages 	2
scalar Network1000.node490 	discovery_latency 	7140
scalar Network1000.node490 	number_of_desired_resources 	20
scalar Network1000.node490 	query_homogenity_rate 	33.333333333333
scalar Network1000.node490 	qrecord_time 	11932
scalar Network1000.node490 	discovery_resolution_rate 	0
scalar Network1000.node700 	rate_of_requesters 	1
scalar Network1000.node700 	number_of_resources 	55000
scalar Network1000.node700 	time_period 	1
scalar Network1000.node700 	number_of_messages 	2
scalar Network1000.node700 	discovery_latency 	7224
scalar Network1000.node700 	number_of_desired_resources 	20
scalar Network1000.node700 	query_homogenity_rate 	33.333333333333
scalar Network1000.node700 	qrecord_time 	11938
scalar Network1000.node700 	discovery_resolution_rate 	0
scalar Network1000.node150 	rate_of_requesters 	1
scalar Network1000.node150 	number_of_resources 	55000
scalar Network1000.node150 	time_period 	1
scalar Network1000.node150 	number_of_messages 	2
scalar Network1000.node150 	discovery_latency 	7200
scalar Network1000.node150 	number_of_desired_resources 	20
scalar Network1000.node150 	query_homogenity_rate 	33.333333333333
scalar Network1000.node150 	qrecord_time 	11938
scalar Network1000.node150 	discovery_resolution_rate 	0
scalar Network1000.node630 	rate_of_requesters 	1
scalar Network1000.node630 	number_of_resources 	55000
scalar Network1000.node630 	time_period 	1
scalar Network1000.node630 	number_of_messages 	2
scalar Network1000.node630 	discovery_latency 	7176
scalar Network1000.node630 	number_of_desired_resources 	20
scalar Network1000.node630 	query_homogenity_rate 	33.333333333333
scalar Network1000.node630 	qrecord_time 	11944
scalar Network1000.node630 	discovery_resolution_rate 	0
scalar Network1000.node90 	rate_of_requesters 	1
scalar Network1000.node90 	number_of_resources 	55000
scalar Network1000.node90 	time_period 	1
scalar Network1000.node90 	number_of_messages 	304
scalar Network1000.node90 	discovery_latency 	7284
scalar Network1000.node90 	number_of_desired_resources 	20
scalar Network1000.node90 	query_homogenity_rate 	33.333333333333
scalar Network1000.node90 	qrecord_time 	11950
scalar Network1000.node90 	discovery_resolution_rate 	16.666666666667
scalar Network1000.node230 	rate_of_requesters 	1
scalar Network1000.node230 	number_of_resources 	55000
scalar Network1000.node230 	time_period 	1
scalar Network1000.node230 	number_of_messages 	2
scalar Network1000.node230 	discovery_latency 	7248
scalar Network1000.node230 	number_of_desired_resources 	20
scalar Network1000.node230 	query_homogenity_rate 	33.333333333333
scalar Network1000.node230 	qrecord_time 	11962
scalar Network1000.node230 	discovery_resolution_rate 	0
scalar Network1000.node510 	rate_of_requesters 	1
scalar Network1000.node510 	number_of_resources 	55000
scalar Network1000.node510 	time_period 	1
scalar Network1000.node510 	number_of_messages 	2
scalar Network1000.node510 	discovery_latency 	7236
scalar Network1000.node510 	number_of_desired_resources 	20
scalar Network1000.node510 	query_homogenity_rate 	33.333333333333
scalar Network1000.node510 	qrecord_time 	11968
scalar Network1000.node510 	discovery_resolution_rate 	0
scalar Network1000.node310 	rate_of_requesters 	1
scalar Network1000.node310 	number_of_resources 	55000
scalar Network1000.node310 	time_period 	1
scalar Network1000.node310 	number_of_messages 	6
scalar Network1000.node310 	discovery_latency 	7248
scalar Network1000.node310 	number_of_desired_resources 	20
scalar Network1000.node310 	query_homogenity_rate 	33.333333333333
scalar Network1000.node310 	qrecord_time 	11980
scalar Network1000.node310 	discovery_resolution_rate 	33.333333333333
scalar Network1000.node640 	rate_of_requesters 	1
scalar Network1000.node640 	number_of_resources 	55000
scalar Network1000.node640 	time_period 	1
scalar Network1000.node640 	number_of_messages 	357
scalar Network1000.node640 	discovery_latency 	7272
scalar Network1000.node640 	number_of_desired_resources 	20
scalar Network1000.node640 	query_homogenity_rate 	33.333333333333
scalar Network1000.node640 	qrecord_time 	11980
scalar Network1000.node640 	discovery_resolution_rate 	50
scalar Network1000.node410 	rate_of_requesters 	1
scalar Network1000.node410 	number_of_resources 	55000
scalar Network1000.node410 	time_period 	1
scalar Network1000.node410 	number_of_messages 	0
scalar Network1000.node410 	discovery_latency 	7284
scalar Network1000.node410 	number_of_desired_resources 	20
scalar Network1000.node410 	query_homogenity_rate 	33.333333333333
scalar Network1000.node410 	qrecord_time 	11980
scalar Network1000.node410 	discovery_resolution_rate 	0
scalar Network1000.node930 	rate_of_requesters 	1
scalar Network1000.node930 	number_of_resources 	55000
scalar Network1000.node930 	time_period 	2
scalar Network1000.node930 	number_of_messages 	2
scalar Network1000.node930 	discovery_latency 	7056
scalar Network1000.node930 	number_of_desired_resources 	20
scalar Network1000.node930 	query_homogenity_rate 	33.333333333333
scalar Network1000.node930 	qrecord_time 	11983.393494335
scalar Network1000.node930 	discovery_resolution_rate 	0
scalar Network1000.node810 	rate_of_requesters 	1
scalar Network1000.node810 	number_of_resources 	55000
scalar Network1000.node810 	time_period 	1
scalar Network1000.node810 	number_of_messages 	2
scalar Network1000.node810 	discovery_latency 	7188
scalar Network1000.node810 	number_of_desired_resources 	20
scalar Network1000.node810 	query_homogenity_rate 	33.333333333333
scalar Network1000.node810 	qrecord_time 	11998
scalar Network1000.node810 	discovery_resolution_rate 	0
scalar Network1000.node910 	rate_of_requesters 	1
scalar Network1000.node910 	number_of_resources 	55000
scalar Network1000.node910 	time_period 	1
scalar Network1000.node910 	number_of_messages 	7
scalar Network1000.node910 	discovery_latency 	7236
scalar Network1000.node910 	number_of_desired_resources 	20
scalar Network1000.node910 	query_homogenity_rate 	33.333333333333
scalar Network1000.node910 	qrecord_time 	12010
scalar Network1000.node910 	discovery_resolution_rate 	33.333333333333
scalar Network1000.node890 	rate_of_requesters 	1
scalar Network1000.node890 	number_of_resources 	55000
scalar Network1000.node890 	time_period 	1
scalar Network1000.node890 	number_of_messages 	2
scalar Network1000.node890 	discovery_latency 	7200
scalar Network1000.node890 	number_of_desired_resources 	20
scalar Network1000.node890 	query_homogenity_rate 	33.333333333333
scalar Network1000.node890 	qrecord_time 	12010
scalar Network1000.node890 	discovery_resolution_rate 	0
scalar Network1000.node620 	rate_of_requesters 	1
scalar Network1000.node620 	number_of_resources 	55000
scalar Network1000.node620 	time_period 	1
scalar Network1000.node620 	number_of_messages 	5
scalar Network1000.node620 	discovery_latency 	7260
scalar Network1000.node620 	number_of_desired_resources 	20
scalar Network1000.node620 	query_homogenity_rate 	33.333333333333
scalar Network1000.node620 	qrecord_time 	12010
scalar Network1000.node620 	discovery_resolution_rate 	33.333333333333
scalar Network1000.node560 	rate_of_requesters 	1
scalar Network1000.node560 	number_of_resources 	55000
scalar Network1000.node560 	time_period 	1
scalar Network1000.node560 	number_of_messages 	2
scalar Network1000.node560 	discovery_latency 	7200
scalar Network1000.node560 	number_of_desired_resources 	20
scalar Network1000.node560 	query_homogenity_rate 	33.333333333333
scalar Network1000.node560 	qrecord_time 	12010
scalar Network1000.node560 	discovery_resolution_rate 	0
scalar Network1000.node380 	rate_of_requesters 	1
scalar Network1000.node380 	number_of_resources 	55000
scalar Network1000.node380 	time_period 	1
scalar Network1000.node380 	number_of_messages 	10
scalar Network1000.node380 	discovery_latency 	7332
scalar Network1000.node380 	number_of_desired_resources 	20
scalar Network1000.node380 	query_homogenity_rate 	33.333333333333
scalar Network1000.node380 	qrecord_time 	12016
scalar Network1000.node380 	discovery_resolution_rate 	33.333333333333
scalar Network1000.node70 	rate_of_requesters 	1
scalar Network1000.node70 	number_of_resources 	55000
scalar Network1000.node70 	time_period 	1
scalar Network1000.node70 	number_of_messages 	2
scalar Network1000.node70 	discovery_latency 	7272
scalar Network1000.node70 	number_of_desired_resources 	20
scalar Network1000.node70 	query_homogenity_rate 	33.333333333333
scalar Network1000.node70 	qrecord_time 	12022
scalar Network1000.node70 	discovery_resolution_rate 	0
scalar Network1000.node820 	rate_of_requesters 	1
scalar Network1000.node820 	number_of_resources 	55000
scalar Network1000.node820 	time_period 	1
scalar Network1000.node820 	number_of_messages 	2
scalar Network1000.node820 	discovery_latency 	7356
scalar Network1000.node820 	number_of_desired_resources 	20
scalar Network1000.node820 	query_homogenity_rate 	33.333333333333
scalar Network1000.node820 	qrecord_time 	12022
scalar Network1000.node820 	discovery_resolution_rate 	0
scalar Network1000.node650 	rate_of_requesters 	1
scalar Network1000.node650 	number_of_resources 	55000
scalar Network1000.node650 	time_period 	1
scalar Network1000.node650 	number_of_messages 	2
scalar Network1000.node650 	discovery_latency 	7260
scalar Network1000.node650 	number_of_desired_resources 	20
scalar Network1000.node650 	query_homogenity_rate 	33.333333333333
scalar Network1000.node650 	qrecord_time 	12028
scalar Network1000.node650 	discovery_resolution_rate 	0
scalar Network1000.node880 	rate_of_requesters 	1
scalar Network1000.node880 	number_of_resources 	55000
scalar Network1000.node880 	time_period 	1
scalar Network1000.node880 	number_of_messages 	10
scalar Network1000.node880 	discovery_latency 	7272
scalar Network1000.node880 	number_of_desired_resources 	20
scalar Network1000.node880 	query_homogenity_rate 	33.333333333333
scalar Network1000.node880 	qrecord_time 	12034
scalar Network1000.node880 	discovery_resolution_rate 	33.333333333333
scalar Network1000.node930 	rate_of_requesters 	1
scalar Network1000.node930 	number_of_resources 	55000
scalar Network1000.node930 	time_period 	1
scalar Network1000.node930 	number_of_messages 	2
scalar Network1000.node930 	discovery_latency 	7224
scalar Network1000.node930 	number_of_desired_resources 	20
scalar Network1000.node930 	query_homogenity_rate 	33.333333333333
scalar Network1000.node930 	qrecord_time 	12034
scalar Network1000.node930 	discovery_resolution_rate 	0
scalar Network1000.node950 	rate_of_requesters 	1
scalar Network1000.node950 	number_of_resources 	55000
scalar Network1000.node950 	time_period 	1
scalar Network1000.node950 	number_of_messages 	2
scalar Network1000.node950 	discovery_latency 	7296
scalar Network1000.node950 	number_of_desired_resources 	20
scalar Network1000.node950 	query_homogenity_rate 	33.333333333333
scalar Network1000.node950 	qrecord_time 	12046
scalar Network1000.node950 	discovery_resolution_rate 	0
scalar Network1000.node300 	rate_of_requesters 	1
scalar Network1000.node300 	number_of_resources 	55000
scalar Network1000.node300 	time_period 	1
scalar Network1000.node300 	number_of_messages 	10
scalar Network1000.node300 	discovery_latency 	7296
scalar Network1000.node300 	number_of_desired_resources 	20
scalar Network1000.node300 	query_homogenity_rate 	33.333333333333
scalar Network1000.node300 	qrecord_time 	12046
scalar Network1000.node300 	discovery_resolution_rate 	33.333333333333
scalar Network1000.node460 	rate_of_requesters 	1
scalar Network1000.node460 	number_of_resources 	55000
scalar Network1000.node460 	time_period 	1
scalar Network1000.node460 	number_of_messages 	2
scalar Network1000.node460 	discovery_latency 	7296
scalar Network1000.node460 	number_of_desired_resources 	20
scalar Network1000.node460 	query_homogenity_rate 	33.333333333333
scalar Network1000.node460 	qrecord_time 	12052
scalar Network1000.node460 	discovery_resolution_rate 	0
scalar Network1000.node340 	rate_of_requesters 	1
scalar Network1000.node340 	number_of_resources 	55000
scalar Network1000.node340 	time_period 	1
scalar Network1000.node340 	number_of_messages 	6
scalar Network1000.node340 	discovery_latency 	7308
scalar Network1000.node340 	number_of_desired_resources 	20
scalar Network1000.node340 	query_homogenity_rate 	33.333333333333
scalar Network1000.node340 	qrecord_time 	12064
scalar Network1000.node340 	discovery_resolution_rate 	33.333333333333
scalar Network1000.node110 	rate_of_requesters 	1
scalar Network1000.node110 	number_of_resources 	55000
scalar Network1000.node110 	time_period 	1
scalar Network1000.node110 	number_of_messages 	2
scalar Network1000.node110 	discovery_latency 	7308
scalar Network1000.node110 	number_of_desired_resources 	20
scalar Network1000.node110 	query_homogenity_rate 	33.333333333333
scalar Network1000.node110 	qrecord_time 	12064
scalar Network1000.node110 	discovery_resolution_rate 	0
scalar Network1000.node480 	rate_of_requesters 	1
scalar Network1000.node480 	number_of_resources 	55000
scalar Network1000.node480 	time_period 	2
scalar Network1000.node480 	number_of_messages 	296
scalar Network1000.node480 	discovery_latency 	7284
scalar Network1000.node480 	number_of_desired_resources 	20
scalar Network1000.node480 	query_homogenity_rate 	33.333333333333
scalar Network1000.node480 	qrecord_time 	12066.87956107
scalar Network1000.node480 	discovery_resolution_rate 	16.666666666667
scalar Network1000.node720 	rate_of_requesters 	1
scalar Network1000.node720 	number_of_resources 	55000
scalar Network1000.node720 	time_period 	1
scalar Network1000.node720 	number_of_messages 	8
scalar Network1000.node720 	discovery_latency 	7404
scalar Network1000.node720 	number_of_desired_resources 	20
scalar Network1000.node720 	query_homogenity_rate 	33.333333333333
scalar Network1000.node720 	qrecord_time 	12070
scalar Network1000.node720 	discovery_resolution_rate 	33.333333333333
scalar Network1000.node730 	rate_of_requesters 	1
scalar Network1000.node730 	number_of_resources 	55000
scalar Network1000.node730 	time_period 	1
scalar Network1000.node730 	number_of_messages 	6
scalar Network1000.node730 	discovery_latency 	7308
scalar Network1000.node730 	number_of_desired_resources 	20
scalar Network1000.node730 	query_homogenity_rate 	33.333333333333
scalar Network1000.node730 	qrecord_time 	12082
scalar Network1000.node730 	discovery_resolution_rate 	33.333333333333
scalar Network1000.node990 	rate_of_requesters 	1
scalar Network1000.node990 	number_of_resources 	55000
scalar Network1000.node990 	time_period 	1
scalar Network1000.node990 	number_of_messages 	2
scalar Network1000.node990 	discovery_latency 	7284
scalar Network1000.node990 	number_of_desired_resources 	20
scalar Network1000.node990 	query_homogenity_rate 	33.333333333333
scalar Network1000.node990 	qrecord_time 	12094
scalar Network1000.node990 	discovery_resolution_rate 	0
scalar Network1000.node480 	rate_of_requesters 	1
scalar Network1000.node480 	number_of_resources 	55000
scalar Network1000.node480 	time_period 	3
scalar Network1000.node480 	number_of_messages 	2
scalar Network1000.node480 	discovery_latency 	7152
scalar Network1000.node480 	number_of_desired_resources 	20
scalar Network1000.node480 	query_homogenity_rate 	33.333333333333
scalar Network1000.node480 	qrecord_time 	12097.058404629
scalar Network1000.node480 	discovery_resolution_rate 	0
scalar Network1000.node910 	rate_of_requesters 	1
scalar Network1000.node910 	number_of_resources 	55000
scalar Network1000.node910 	time_period 	2
scalar Network1000.node910 	number_of_messages 	2
scalar Network1000.node910 	discovery_latency 	7224
scalar Network1000.node910 	number_of_desired_resources 	20
scalar Network1000.node910 	query_homogenity_rate 	33.333333333333
scalar Network1000.node910 	qrecord_time 	12098.00291409
scalar Network1000.node910 	discovery_resolution_rate 	0
scalar Network1000.node220 	rate_of_requesters 	1
scalar Network1000.node220 	number_of_resources 	55000
scalar Network1000.node220 	time_period 	2
scalar Network1000.node220 	number_of_messages 	2
scalar Network1000.node220 	discovery_latency 	7020
scalar Network1000.node220 	number_of_desired_resources 	20
scalar Network1000.node220 	query_homogenity_rate 	33.333333333333
scalar Network1000.node220 	qrecord_time 	12098.082918318
scalar Network1000.node220 	discovery_resolution_rate 	0
scalar Network1000.node690 	rate_of_requesters 	1
scalar Network1000.node690 	number_of_resources 	55000
scalar Network1000.node690 	time_period 	1
scalar Network1000.node690 	number_of_messages 	354
scalar Network1000.node690 	discovery_latency 	7332
scalar Network1000.node690 	number_of_desired_resources 	20
scalar Network1000.node690 	query_homogenity_rate 	33.333333333333
scalar Network1000.node690 	qrecord_time 	12100
scalar Network1000.node690 	discovery_resolution_rate 	16.666666666667
scalar Network1000.node440 	rate_of_requesters 	1
scalar Network1000.node440 	number_of_resources 	55000
scalar Network1000.node440 	time_period 	1
scalar Network1000.node440 	number_of_messages 	2
scalar Network1000.node440 	discovery_latency 	7392
scalar Network1000.node440 	number_of_desired_resources 	20
scalar Network1000.node440 	query_homogenity_rate 	33.333333333333
scalar Network1000.node440 	qrecord_time 	12160
scalar Network1000.node440 	discovery_resolution_rate 	0
scalar Network1000.node180 	rate_of_requesters 	1
scalar Network1000.node180 	number_of_resources 	55000
scalar Network1000.node180 	time_period 	2
scalar Network1000.node180 	number_of_messages 	2
scalar Network1000.node180 	discovery_latency 	7224
scalar Network1000.node180 	number_of_desired_resources 	20
scalar Network1000.node180 	query_homogenity_rate 	33.333333333333
scalar Network1000.node180 	qrecord_time 	12178.153718871
scalar Network1000.node180 	discovery_resolution_rate 	0
scalar Network1000.node930 	rate_of_requesters 	1
scalar Network1000.node930 	number_of_resources 	55000
scalar Network1000.node930 	time_period 	3
scalar Network1000.node930 	number_of_messages 	2
scalar Network1000.node930 	discovery_latency 	7104
scalar Network1000.node930 	number_of_desired_resources 	20
scalar Network1000.node930 	query_homogenity_rate 	33.333333333333
scalar Network1000.node930 	qrecord_time 	12180.093139806
scalar Network1000.node930 	discovery_resolution_rate 	0
scalar Network1000.node200 	rate_of_requesters 	1
scalar Network1000.node200 	number_of_resources 	55000
scalar Network1000.node200 	time_period 	1
scalar Network1000.node200 	number_of_messages 	22
scalar Network1000.node200 	discovery_latency 	7392
scalar Network1000.node200 	number_of_desired_resources 	20
scalar Network1000.node200 	query_homogenity_rate 	33.333333333333
scalar Network1000.node200 	qrecord_time 	12184
scalar Network1000.node200 	discovery_resolution_rate 	33.333333333333
scalar Network1000.node360 	rate_of_requesters 	1
scalar Network1000.node360 	number_of_resources 	55000
scalar Network1000.node360 	time_period 	2
scalar Network1000.node360 	number_of_messages 	2
scalar Network1000.node360 	discovery_latency 	7296
scalar Network1000.node360 	number_of_desired_resources 	20
scalar Network1000.node360 	query_homogenity_rate 	33.333333333333
scalar Network1000.node360 	qrecord_time 	12219.875544599
scalar Network1000.node360 	discovery_resolution_rate 	0
scalar Network1000.node410 	rate_of_requesters 	1
scalar Network1000.node410 	number_of_resources 	55000
scalar Network1000.node410 	time_period 	2
scalar Network1000.node410 	number_of_messages 	0
scalar Network1000.node410 	discovery_latency 	6924
scalar Network1000.node410 	number_of_desired_resources 	20
scalar Network1000.node410 	query_homogenity_rate 	33.333333333333
scalar Network1000.node410 	qrecord_time 	12314.482335176
scalar Network1000.node410 	discovery_resolution_rate 	0
scalar Network1000.node330 	rate_of_requesters 	1
scalar Network1000.node330 	number_of_resources 	55000
scalar Network1000.node330 	time_period 	2
scalar Network1000.node330 	number_of_messages 	2
scalar Network1000.node330 	discovery_latency 	7284
scalar Network1000.node330 	number_of_desired_resources 	20
scalar Network1000.node330 	query_homogenity_rate 	33.333333333333
scalar Network1000.node330 	qrecord_time 	12331.049085132
scalar Network1000.node330 	discovery_resolution_rate 	0
scalar Network1000.node770 	rate_of_requesters 	1
scalar Network1000.node770 	number_of_resources 	55000
scalar Network1000.node770 	time_period 	2
scalar Network1000.node770 	number_of_messages 	2
scalar Network1000.node770 	discovery_latency 	7284
scalar Network1000.node770 	number_of_desired_resources 	20
scalar Network1000.node770 	query_homogenity_rate 	33.333333333333
scalar Network1000.node770 	qrecord_time 	12413.490798706
scalar Network1000.node770 	discovery_resolution_rate 	0
scalar Network1000.node580 	rate_of_requesters 	1
scalar Network1000.node580 	number_of_resources 	55000
scalar Network1000.node580 	time_period 	2
scalar Network1000.node580 	number_of_messages 	2
scalar Network1000.node580 	discovery_latency 	7212
scalar Network1000.node580 	number_of_desired_resources 	20
scalar Network1000.node580 	query_homogenity_rate 	33.333333333333
scalar Network1000.node580 	qrecord_time 	12419.910656272
scalar Network1000.node580 	discovery_resolution_rate 	0
scalar Network1000.node230 	rate_of_requesters 	1
scalar Network1000.node230 	number_of_resources 	55000
scalar Network1000.node230 	time_period 	2
scalar Network1000.node230 	number_of_messages 	2
scalar Network1000.node230 	discovery_latency 	7272
scalar Network1000.node230 	number_of_desired_resources 	20
scalar Network1000.node230 	query_homogenity_rate 	33.333333333333
scalar Network1000.node230 	qrecord_time 	12448.72492873
scalar Network1000.node230 	discovery_resolution_rate 	0
scalar Network1000.node340 	rate_of_requesters 	1
scalar Network1000.node340 	number_of_resources 	55000
scalar Network1000.node340 	time_period 	2
scalar Network1000.node340 	number_of_messages 	2
scalar Network1000.node340 	discovery_latency 	7176
scalar Network1000.node340 	number_of_desired_resources 	20
scalar Network1000.node340 	query_homogenity_rate 	33.333333333333
scalar Network1000.node340 	qrecord_time 	12474.468081804
scalar Network1000.node340 	discovery_resolution_rate 	0
scalar Network1000.node100 	rate_of_requesters 	1
scalar Network1000.node100 	number_of_resources 	55000
scalar Network1000.node100 	time_period 	2
scalar Network1000.node100 	number_of_messages 	2
scalar Network1000.node100 	discovery_latency 	7236
scalar Network1000.node100 	number_of_desired_resources 	20
scalar Network1000.node100 	query_homogenity_rate 	33.333333333333
scalar Network1000.node100 	qrecord_time 	12487.684016584
scalar Network1000.node100 	discovery_resolution_rate 	0
scalar Network1000.node230 	rate_of_requesters 	1
scalar Network1000.node230 	number_of_resources 	55000
scalar Network1000.node230 	time_period 	3
scalar Network1000.node230 	number_of_messages 	2
scalar Network1000.node230 	discovery_latency 	7140
scalar Network1000.node230 	number_of_desired_resources 	20
scalar Network1000.node230 	query_homogenity_rate 	33.333333333333
scalar Network1000.node230 	qrecord_time 	12526.029556209
scalar Network1000.node230 	discovery_resolution_rate 	0
scalar Network1000.node630 	rate_of_requesters 	1
scalar Network1000.node630 	number_of_resources 	55000
scalar Network1000.node630 	time_period 	2
scalar Network1000.node630 	number_of_messages 	2
scalar Network1000.node630 	discovery_latency 	7080
scalar Network1000.node630 	number_of_desired_resources 	20
scalar Network1000.node630 	query_homogenity_rate 	33.333333333333
scalar Network1000.node630 	qrecord_time 	12549.312276006
scalar Network1000.node630 	discovery_resolution_rate 	0
scalar Network1000.node810 	rate_of_requesters 	1
scalar Network1000.node810 	number_of_resources 	55000
scalar Network1000.node810 	time_period 	2
scalar Network1000.node810 	number_of_messages 	2
scalar Network1000.node810 	discovery_latency 	7128
scalar Network1000.node810 	number_of_desired_resources 	20
scalar Network1000.node810 	query_homogenity_rate 	33.333333333333
scalar Network1000.node810 	qrecord_time 	12564.409736509
scalar Network1000.node810 	discovery_resolution_rate 	0
scalar Network1000.node520 	rate_of_requesters 	1
scalar Network1000.node520 	number_of_resources 	55000
scalar Network1000.node520 	time_period 	2
scalar Network1000.node520 	number_of_messages 	0
scalar Network1000.node520 	discovery_latency 	7272
scalar Network1000.node520 	number_of_desired_resources 	20
scalar Network1000.node520 	query_homogenity_rate 	33.333333333333
scalar Network1000.node520 	qrecord_time 	12602.190401474
scalar Network1000.node520 	discovery_resolution_rate 	0
scalar Network1000.node180 	rate_of_requesters 	1
scalar Network1000.node180 	number_of_resources 	55000
scalar Network1000.node180 	time_period 	3
scalar Network1000.node180 	number_of_messages 	2
scalar Network1000.node180 	discovery_latency 	7068
scalar Network1000.node180 	number_of_desired_resources 	20
scalar Network1000.node180 	query_homogenity_rate 	33.333333333333
scalar Network1000.node180 	qrecord_time 	12609.379074795
scalar Network1000.node180 	discovery_resolution_rate 	0
scalar Network1000.node950 	rate_of_requesters 	1
scalar Network1000.node950 	number_of_resources 	55000
scalar Network1000.node950 	time_period 	2
scalar Network1000.node950 	number_of_messages 	2
scalar Network1000.node950 	discovery_latency 	7152
scalar Network1000.node950 	number_of_desired_resources 	20
scalar Network1000.node950 	query_homogenity_rate 	33.333333333333
scalar Network1000.node950 	qrecord_time 	12742.985299451
scalar Network1000.node950 	discovery_resolution_rate 	0
scalar Network1000.node950 	rate_of_requesters 	1
scalar Network1000.node950 	number_of_resources 	55000
scalar Network1000.node950 	time_period 	3
scalar Network1000.node950 	number_of_messages 	2
scalar Network1000.node950 	discovery_latency 	6984
scalar Network1000.node950 	number_of_desired_resources 	20
scalar Network1000.node950 	query_homogenity_rate 	33.333333333333
scalar Network1000.node950 	qrecord_time 	12792.34857534
scalar Network1000.node950 	discovery_resolution_rate 	0
scalar Network1000.node860 	rate_of_requesters 	1
scalar Network1000.node860 	number_of_resources 	55000
scalar Network1000.node860 	time_period 	3
scalar Network1000.node860 	number_of_messages 	2
scalar Network1000.node860 	discovery_latency 	7104
scalar Network1000.node860 	number_of_desired_resources 	20
scalar Network1000.node860 	query_homogenity_rate 	33.333333333333
scalar Network1000.node860 	qrecord_time 	12842.037449015
scalar Network1000.node860 	discovery_resolution_rate 	0
scalar Network1000.node880 	rate_of_requesters 	1
scalar Network1000.node880 	number_of_resources 	55000
scalar Network1000.node880 	time_period 	2
scalar Network1000.node880 	number_of_messages 	2
scalar Network1000.node880 	discovery_latency 	7176
scalar Network1000.node880 	number_of_desired_resources 	20
scalar Network1000.node880 	query_homogenity_rate 	33.333333333333
scalar Network1000.node880 	qrecord_time 	12870.413747699
scalar Network1000.node880 	discovery_resolution_rate 	0
scalar Network1000.node420 	rate_of_requesters 	1
scalar Network1000.node420 	number_of_resources 	55000
scalar Network1000.node420 	time_period 	2
scalar Network1000.node420 	number_of_messages 	2
scalar Network1000.node420 	discovery_latency 	7176
scalar Network1000.node420 	number_of_desired_resources 	20
scalar Network1000.node420 	query_homogenity_rate 	33.333333333333
scalar Network1000.node420 	qrecord_time 	12890.366475934
scalar Network1000.node420 	discovery_resolution_rate 	0
scalar Network1000.node130 	rate_of_requesters 	1
scalar Network1000.node130 	number_of_resources 	55000
scalar Network1000.node130 	time_period 	2
scalar Network1000.node130 	number_of_messages 	0
scalar Network1000.node130 	discovery_latency 	7176
scalar Network1000.node130 	number_of_desired_resources 	20
scalar Network1000.node130 	query_homogenity_rate 	33.333333333333
scalar Network1000.node130 	qrecord_time 	12919.129415294
scalar Network1000.node130 	discovery_resolution_rate 	0
scalar Network1000.node610 	rate_of_requesters 	1
scalar Network1000.node610 	number_of_resources 	55000
scalar Network1000.node610 	time_period 	3
scalar Network1000.node610 	number_of_messages 	2
scalar Network1000.node610 	discovery_latency 	7320
scalar Network1000.node610 	number_of_desired_resources 	20
scalar Network1000.node610 	query_homogenity_rate 	33.333333333333
scalar Network1000.node610 	qrecord_time 	12942.174093628
scalar Network1000.node610 	discovery_resolution_rate 	0
scalar Network1000.node340 	rate_of_requesters 	1
scalar Network1000.node340 	number_of_resources 	55000
scalar Network1000.node340 	time_period 	3
scalar Network1000.node340 	number_of_messages 	2
scalar Network1000.node340 	discovery_latency 	7164
scalar Network1000.node340 	number_of_desired_resources 	20
scalar Network1000.node340 	query_homogenity_rate 	33.333333333333
scalar Network1000.node340 	qrecord_time 	12988.485885545
scalar Network1000.node340 	discovery_resolution_rate 	0
scalar Network1000.node480 	rate_of_requesters 	1
scalar Network1000.node480 	number_of_resources 	55000
scalar Network1000.node480 	time_period 	4
scalar Network1000.node480 	number_of_messages 	2
scalar Network1000.node480 	discovery_latency 	7164
scalar Network1000.node480 	number_of_desired_resources 	20
scalar Network1000.node480 	query_homogenity_rate 	33.333333333333
scalar Network1000.node480 	qrecord_time 	12993.826892797
scalar Network1000.node480 	discovery_resolution_rate 	0
scalar Network1000.node340 	rate_of_requesters 	1
scalar Network1000.node340 	number_of_resources 	55000
scalar Network1000.node340 	time_period 	4
scalar Network1000.node340 	number_of_messages 	2
scalar Network1000.node340 	discovery_latency 	7008
scalar Network1000.node340 	number_of_desired_resources 	20
scalar Network1000.node340 	query_homogenity_rate 	33.333333333333
scalar Network1000.node340 	qrecord_time 	13078.217931651
scalar Network1000.node340 	discovery_resolution_rate 	0
scalar Network1000.node410 	rate_of_requesters 	1
scalar Network1000.node410 	number_of_resources 	55000
scalar Network1000.node410 	time_period 	3
scalar Network1000.node410 	number_of_messages 	0
scalar Network1000.node410 	discovery_latency 	7320
scalar Network1000.node410 	number_of_desired_resources 	20
scalar Network1000.node410 	query_homogenity_rate 	33.333333333333
scalar Network1000.node410 	qrecord_time 	13358.623025013
scalar Network1000.node410 	discovery_resolution_rate 	0
scalar Network1000.node720 	rate_of_requesters 	1
scalar Network1000.node720 	number_of_resources 	55000
scalar Network1000.node720 	time_period 	2
scalar Network1000.node720 	number_of_messages 	2
scalar Network1000.node720 	discovery_latency 	7356
scalar Network1000.node720 	number_of_desired_resources 	20
scalar Network1000.node720 	query_homogenity_rate 	33.333333333333
scalar Network1000.node720 	qrecord_time 	13398.832607402
scalar Network1000.node720 	discovery_resolution_rate 	0
scalar Network1000.node850 	rate_of_requesters 	1
scalar Network1000.node850 	number_of_resources 	55000
scalar Network1000.node850 	time_period 	2
scalar Network1000.node850 	number_of_messages 	2
scalar Network1000.node850 	discovery_latency 	7392
scalar Network1000.node850 	number_of_desired_resources 	20
scalar Network1000.node850 	query_homogenity_rate 	33.333333333333
scalar Network1000.node850 	qrecord_time 	13449.816380754
scalar Network1000.node850 	discovery_resolution_rate 	0
scalar Network1000.node140 	rate_of_requesters 	1
scalar Network1000.node140 	number_of_resources 	55000
scalar Network1000.node140 	time_period 	2
scalar Network1000.node140 	number_of_messages 	2
scalar Network1000.node140 	discovery_latency 	7344
scalar Network1000.node140 	number_of_desired_resources 	20
scalar Network1000.node140 	query_homogenity_rate 	33.333333333333
scalar Network1000.node140 	qrecord_time 	13462.054091392
scalar Network1000.node140 	discovery_resolution_rate 	0
scalar Network1000.node420 	rate_of_requesters 	1
scalar Network1000.node420 	number_of_resources 	55000
scalar Network1000.node420 	time_period 	3
scalar Network1000.node420 	number_of_messages 	2
scalar Network1000.node420 	discovery_latency 	7068
scalar Network1000.node420 	number_of_desired_resources 	20
scalar Network1000.node420 	query_homogenity_rate 	33.333333333333
scalar Network1000.node420 	qrecord_time 	13579.437373924
scalar Network1000.node420 	discovery_resolution_rate 	0
scalar Network1000.node480 	rate_of_requesters 	1
scalar Network1000.node480 	number_of_resources 	55000
scalar Network1000.node480 	time_period 	5
scalar Network1000.node480 	number_of_messages 	2
scalar Network1000.node480 	discovery_latency 	7236
scalar Network1000.node480 	number_of_desired_resources 	20
scalar Network1000.node480 	query_homogenity_rate 	33.333333333333
scalar Network1000.node480 	qrecord_time 	13590.193505824
scalar Network1000.node480 	discovery_resolution_rate 	0
scalar Network1000.node840 	rate_of_requesters 	1
scalar Network1000.node840 	number_of_resources 	55000
scalar Network1000.node840 	time_period 	2
scalar Network1000.node840 	number_of_messages 	2
scalar Network1000.node840 	discovery_latency 	7128
scalar Network1000.node840 	number_of_desired_resources 	20
scalar Network1000.node840 	query_homogenity_rate 	33.333333333333
scalar Network1000.node840 	qrecord_time 	13655.527706963
scalar Network1000.node840 	discovery_resolution_rate 	0
scalar Network1000.node650 	rate_of_requesters 	1
scalar Network1000.node650 	number_of_resources 	55000
scalar Network1000.node650 	time_period 	2
scalar Network1000.node650 	number_of_messages 	2
scalar Network1000.node650 	discovery_latency 	7212
scalar Network1000.node650 	number_of_desired_resources 	20
scalar Network1000.node650 	query_homogenity_rate 	33.333333333333
scalar Network1000.node650 	qrecord_time 	13655.94942359
scalar Network1000.node650 	discovery_resolution_rate 	0
scalar Network1000.node180 	rate_of_requesters 	1
scalar Network1000.node180 	number_of_resources 	55000
scalar Network1000.node180 	time_period 	4
scalar Network1000.node180 	number_of_messages 	2
scalar Network1000.node180 	discovery_latency 	7164
scalar Network1000.node180 	number_of_desired_resources 	20
scalar Network1000.node180 	query_homogenity_rate 	33.333333333333
scalar Network1000.node180 	qrecord_time 	13657.050647202
scalar Network1000.node180 	discovery_resolution_rate 	0
scalar Network1000.node610 	rate_of_requesters 	1
scalar Network1000.node610 	number_of_resources 	55000
scalar Network1000.node610 	time_period 	4
scalar Network1000.node610 	number_of_messages 	2
scalar Network1000.node610 	discovery_latency 	7044
scalar Network1000.node610 	number_of_desired_resources 	20
scalar Network1000.node610 	query_homogenity_rate 	33.333333333333
scalar Network1000.node610 	qrecord_time 	13672.140073216
scalar Network1000.node610 	discovery_resolution_rate 	0
scalar Network1000.node380 	rate_of_requesters 	1
scalar Network1000.node380 	number_of_resources 	55000
scalar Network1000.node380 	time_period 	2
scalar Network1000.node380 	number_of_messages 	2
scalar Network1000.node380 	discovery_latency 	7176
scalar Network1000.node380 	number_of_desired_resources 	20
scalar Network1000.node380 	query_homogenity_rate 	33.333333333333
scalar Network1000.node380 	qrecord_time 	13701.029000365
scalar Network1000.node380 	discovery_resolution_rate 	0
scalar Network1000.node150 	rate_of_requesters 	1
scalar Network1000.node150 	number_of_resources 	55000
scalar Network1000.node150 	time_period 	2
scalar Network1000.node150 	number_of_messages 	2
scalar Network1000.node150 	discovery_latency 	6900
scalar Network1000.node150 	number_of_desired_resources 	20
scalar Network1000.node150 	query_homogenity_rate 	33.333333333333
scalar Network1000.node150 	qrecord_time 	13782.440153407
scalar Network1000.node150 	discovery_resolution_rate 	0
scalar Network1000.node440 	rate_of_requesters 	1
scalar Network1000.node440 	number_of_resources 	55000
scalar Network1000.node440 	time_period 	2
scalar Network1000.node440 	number_of_messages 	2
scalar Network1000.node440 	discovery_latency 	7284
scalar Network1000.node440 	number_of_desired_resources 	20
scalar Network1000.node440 	query_homogenity_rate 	33.333333333333
scalar Network1000.node440 	qrecord_time 	13807.87879814
scalar Network1000.node440 	discovery_resolution_rate 	0
scalar Network1000.node960 	rate_of_requesters 	1
scalar Network1000.node960 	number_of_resources 	55000
scalar Network1000.node960 	time_period 	2
scalar Network1000.node960 	number_of_messages 	2
scalar Network1000.node960 	discovery_latency 	7200
scalar Network1000.node960 	number_of_desired_resources 	20
scalar Network1000.node960 	query_homogenity_rate 	33.333333333333
scalar Network1000.node960 	qrecord_time 	13842.819403767
scalar Network1000.node960 	discovery_resolution_rate 	0
scalar Network1000.node140 	rate_of_requesters 	1
scalar Network1000.node140 	number_of_resources 	55000
scalar Network1000.node140 	time_period 	3
scalar Network1000.node140 	number_of_messages 	2
scalar Network1000.node140 	discovery_latency 	7116
scalar Network1000.node140 	number_of_desired_resources 	20
scalar Network1000.node140 	query_homogenity_rate 	33.333333333333
scalar Network1000.node140 	qrecord_time 	13886.118407998
scalar Network1000.node140 	discovery_resolution_rate 	0
scalar Network1000.node190 	rate_of_requesters 	1
scalar Network1000.node190 	number_of_resources 	55000
scalar Network1000.node190 	time_period 	2
scalar Network1000.node190 	number_of_messages 	2
scalar Network1000.node190 	discovery_latency 	7200
scalar Network1000.node190 	number_of_desired_resources 	20
scalar Network1000.node190 	query_homogenity_rate 	33.333333333333
scalar Network1000.node190 	qrecord_time 	13886.750592196
scalar Network1000.node190 	discovery_resolution_rate 	0
scalar Network1000.node950 	rate_of_requesters 	1
scalar Network1000.node950 	number_of_resources 	55000
scalar Network1000.node950 	time_period 	4
scalar Network1000.node950 	number_of_messages 	29
scalar Network1000.node950 	discovery_latency 	6780
scalar Network1000.node950 	number_of_desired_resources 	20
scalar Network1000.node950 	query_homogenity_rate 	33.333333333333
scalar Network1000.node950 	qrecord_time 	13902.587135717
scalar Network1000.node950 	discovery_resolution_rate 	33.333333333333
scalar Network1000.node640 	rate_of_requesters 	1
scalar Network1000.node640 	number_of_resources 	55000
scalar Network1000.node640 	time_period 	2
scalar Network1000.node640 	number_of_messages 	2
scalar Network1000.node640 	discovery_latency 	7332
scalar Network1000.node640 	number_of_desired_resources 	20
scalar Network1000.node640 	query_homogenity_rate 	33.333333333333
scalar Network1000.node640 	qrecord_time 	13964.120111261
scalar Network1000.node640 	discovery_resolution_rate 	0
scalar Network1000.node200 	rate_of_requesters 	1
scalar Network1000.node200 	number_of_resources 	55000
scalar Network1000.node200 	time_period 	2
scalar Network1000.node200 	number_of_messages 	2
scalar Network1000.node200 	discovery_latency 	7176
scalar Network1000.node200 	number_of_desired_resources 	20
scalar Network1000.node200 	query_homogenity_rate 	33.333333333333
scalar Network1000.node200 	qrecord_time 	14059.177238415
scalar Network1000.node200 	discovery_resolution_rate 	0
scalar Network1000.node300 	rate_of_requesters 	1
scalar Network1000.node300 	number_of_resources 	55000
scalar Network1000.node300 	time_period 	2
scalar Network1000.node300 	number_of_messages 	27
scalar Network1000.node300 	discovery_latency 	7044
scalar Network1000.node300 	number_of_desired_resources 	20
scalar Network1000.node300 	query_homogenity_rate 	33.333333333333
scalar Network1000.node300 	qrecord_time 	14151.919694498
scalar Network1000.node300 	discovery_resolution_rate 	33.333333333333
scalar Network1000.node980 	rate_of_requesters 	1
scalar Network1000.node980 	number_of_resources 	55000
scalar Network1000.node980 	time_period 	3
scalar Network1000.node980 	number_of_messages 	2
scalar Network1000.node980 	discovery_latency 	7212
scalar Network1000.node980 	number_of_desired_resources 	20
scalar Network1000.node980 	query_homogenity_rate 	33.333333333333
scalar Network1000.node980 	qrecord_time 	14207.404824332
scalar Network1000.node980 	discovery_resolution_rate 	0
scalar Network1000.node990 	rate_of_requesters 	1
scalar Network1000.node990 	number_of_resources 	55000
scalar Network1000.node990 	time_period 	2
scalar Network1000.node990 	number_of_messages 	2
scalar Network1000.node990 	discovery_latency 	7260
scalar Network1000.node990 	number_of_desired_resources 	20
scalar Network1000.node990 	query_homogenity_rate 	33.333333333333
scalar Network1000.node990 	qrecord_time 	14226.592699159
scalar Network1000.node990 	discovery_resolution_rate 	0
scalar Network1000.node530 	rate_of_requesters 	1
scalar Network1000.node530 	number_of_resources 	55000
scalar Network1000.node530 	time_period 	2
scalar Network1000.node530 	number_of_messages 	2
scalar Network1000.node530 	discovery_latency 	7140
scalar Network1000.node530 	number_of_desired_resources 	20
scalar Network1000.node530 	query_homogenity_rate 	33.333333333333
scalar Network1000.node530 	qrecord_time 	14298.538819868
scalar Network1000.node530 	discovery_resolution_rate 	0
scalar Network1000.node120 	rate_of_requesters 	1
scalar Network1000.node120 	number_of_resources 	55000
scalar Network1000.node120 	time_period 	2
scalar Network1000.node120 	number_of_messages 	2
scalar Network1000.node120 	discovery_latency 	7104
scalar Network1000.node120 	number_of_desired_resources 	20
scalar Network1000.node120 	query_homogenity_rate 	33.333333333333
scalar Network1000.node120 	qrecord_time 	14304.619718815
scalar Network1000.node120 	discovery_resolution_rate 	0
scalar Network1000.node230 	rate_of_requesters 	1
scalar Network1000.node230 	number_of_resources 	55000
scalar Network1000.node230 	time_period 	4
scalar Network1000.node230 	number_of_messages 	2
scalar Network1000.node230 	discovery_latency 	7068
scalar Network1000.node230 	number_of_desired_resources 	20
scalar Network1000.node230 	query_homogenity_rate 	33.333333333333
scalar Network1000.node230 	qrecord_time 	14359.363406513
scalar Network1000.node230 	discovery_resolution_rate 	0
scalar Network1000.node630 	rate_of_requesters 	1
scalar Network1000.node630 	number_of_resources 	55000
scalar Network1000.node630 	time_period 	3
scalar Network1000.node630 	number_of_messages 	2
scalar Network1000.node630 	discovery_latency 	7056
scalar Network1000.node630 	number_of_desired_resources 	20
scalar Network1000.node630 	query_homogenity_rate 	33.333333333333
scalar Network1000.node630 	qrecord_time 	14361.100766615
scalar Network1000.node630 	discovery_resolution_rate 	0
scalar Network1000.node690 	rate_of_requesters 	1
scalar Network1000.node690 	number_of_resources 	55000
scalar Network1000.node690 	time_period 	2
scalar Network1000.node690 	number_of_messages 	2
scalar Network1000.node690 	discovery_latency 	7332
scalar Network1000.node690 	number_of_desired_resources 	20
scalar Network1000.node690 	query_homogenity_rate 	33.333333333333
scalar Network1000.node690 	qrecord_time 	14400.311314087
scalar Network1000.node690 	discovery_resolution_rate 	0
scalar Network1000.node920 	rate_of_requesters 	1
scalar Network1000.node920 	number_of_resources 	55000
scalar Network1000.node920 	time_period 	2
scalar Network1000.node920 	number_of_messages 	2
scalar Network1000.node920 	discovery_latency 	7212
scalar Network1000.node920 	number_of_desired_resources 	20
scalar Network1000.node920 	query_homogenity_rate 	33.333333333333
[...]
scalar Network1000.node920 	time_period 	10
scalar Network1000.node920 	number_of_messages 	43
scalar Network1000.node920 	discovery_latency 	6828
scalar Network1000.node920 	number_of_desired_resources 	20
scalar Network1000.node920 	query_homogenity_rate 	33.333333333333
scalar Network1000.node920 	qrecord_time 	55337.221748398
scalar Network1000.node920 	discovery_resolution_rate 	66.666666666667
scalar Network1000.node810 	rate_of_requesters 	1
scalar Network1000.node810 	number_of_resources 	55000
scalar Network1000.node810 	time_period 	8
scalar Network1000.node810 	number_of_messages 	36
scalar Network1000.node810 	discovery_latency 	7068
scalar Network1000.node810 	number_of_desired_resources 	20
scalar Network1000.node810 	query_homogenity_rate 	33.333333333333
scalar Network1000.node810 	qrecord_time 	55486.52374784
scalar Network1000.node810 	discovery_resolution_rate 	33.333333333333
scalar Network1000.node810 	rate_of_requesters 	1
scalar Network1000.node810 	number_of_resources 	55000
scalar Network1000.node810 	time_period 	9
scalar Network1000.node810 	number_of_messages 	301
scalar Network1000.node810 	discovery_latency 	6780
scalar Network1000.node810 	number_of_desired_resources 	20
scalar Network1000.node810 	query_homogenity_rate 	33.333333333333
scalar Network1000.node810 	qrecord_time 	55579.376248249
scalar Network1000.node810 	discovery_resolution_rate 	50
scalar Network1000.node390 	rate_of_requesters 	1
scalar Network1000.node390 	number_of_resources 	55000
scalar Network1000.node390 	time_period 	9
scalar Network1000.node390 	number_of_messages 	27
scalar Network1000.node390 	discovery_latency 	264
scalar Network1000.node390 	number_of_desired_resources 	20
scalar Network1000.node390 	query_homogenity_rate 	33.333333333333
scalar Network1000.node390 	qrecord_time 	55627.195967068
scalar Network1000.node390 	discovery_resolution_rate 	100
scalar Network1000.node540 	rate_of_requesters 	1
scalar Network1000.node540 	number_of_resources 	55000
scalar Network1000.node540 	time_period 	10
scalar Network1000.node540 	number_of_messages 	12
scalar Network1000.node540 	discovery_latency 	6672
scalar Network1000.node540 	number_of_desired_resources 	20
scalar Network1000.node540 	query_homogenity_rate 	33.333333333333
scalar Network1000.node540 	qrecord_time 	55849.512865668
scalar Network1000.node540 	discovery_resolution_rate 	33.333333333333
scalar Network1000.node70 	rate_of_requesters 	1
scalar Network1000.node70 	number_of_resources 	55000
scalar Network1000.node70 	time_period 	7
scalar Network1000.node70 	number_of_messages 	18
scalar Network1000.node70 	discovery_latency 	6948
scalar Network1000.node70 	number_of_desired_resources 	20
scalar Network1000.node70 	query_homogenity_rate 	33.333333333333
scalar Network1000.node70 	qrecord_time 	55970.981554088
scalar Network1000.node70 	discovery_resolution_rate 	33.333333333333
scalar Network1000.node640 	rate_of_requesters 	1
scalar Network1000.node640 	number_of_resources 	55000
scalar Network1000.node640 	time_period 	9
scalar Network1000.node640 	number_of_messages 	16
scalar Network1000.node640 	discovery_latency 	6696
scalar Network1000.node640 	number_of_desired_resources 	20
scalar Network1000.node640 	query_homogenity_rate 	33.333333333333
scalar Network1000.node640 	qrecord_time 	56314.062475111
scalar Network1000.node640 	discovery_resolution_rate 	33.333333333333
scalar Network1000.node870 	rate_of_requesters 	1
scalar Network1000.node870 	number_of_resources 	55000
scalar Network1000.node870 	time_period 	9
scalar Network1000.node870 	number_of_messages 	332
scalar Network1000.node870 	discovery_latency 	6792
scalar Network1000.node870 	number_of_desired_resources 	20
scalar Network1000.node870 	query_homogenity_rate 	33.333333333333
scalar Network1000.node870 	qrecord_time 	56379.711261097
scalar Network1000.node870 	discovery_resolution_rate 	50
scalar Network1000.node870 	rate_of_requesters 	1
scalar Network1000.node870 	number_of_resources 	55000
scalar Network1000.node870 	time_period 	10
scalar Network1000.node870 	number_of_messages 	315
scalar Network1000.node870 	discovery_latency 	6552
scalar Network1000.node870 	number_of_desired_resources 	20
scalar Network1000.node870 	query_homogenity_rate 	33.333333333333
scalar Network1000.node870 	qrecord_time 	56437.883795173
scalar Network1000.node870 	discovery_resolution_rate 	83.333333333333
scalar Network1000.node430 	rate_of_requesters 	1
scalar Network1000.node430 	number_of_resources 	55000
scalar Network1000.node430 	time_period 	9
scalar Network1000.node430 	number_of_messages 	36
scalar Network1000.node430 	discovery_latency 	432
scalar Network1000.node430 	number_of_desired_resources 	20
scalar Network1000.node430 	query_homogenity_rate 	33.333333333333
scalar Network1000.node430 	qrecord_time 	56537.921234967
scalar Network1000.node430 	discovery_resolution_rate 	100
scalar Network1000.node690 	rate_of_requesters 	1
scalar Network1000.node690 	number_of_resources 	55000
scalar Network1000.node690 	time_period 	9
scalar Network1000.node690 	number_of_messages 	390
scalar Network1000.node690 	discovery_latency 	6396
scalar Network1000.node690 	number_of_desired_resources 	20
scalar Network1000.node690 	query_homogenity_rate 	33.333333333333
scalar Network1000.node690 	qrecord_time 	56595.049523222
scalar Network1000.node690 	discovery_resolution_rate 	83.333333333333
scalar Network1000.node810 	rate_of_requesters 	1
scalar Network1000.node810 	number_of_resources 	55000
scalar Network1000.node810 	time_period 	10
scalar Network1000.node810 	number_of_messages 	74
scalar Network1000.node810 	discovery_latency 	6564
scalar Network1000.node810 	number_of_desired_resources 	20
scalar Network1000.node810 	query_homogenity_rate 	33.333333333333
scalar Network1000.node810 	qrecord_time 	57330.367010283
scalar Network1000.node810 	discovery_resolution_rate 	66.666666666667
scalar Network1000.node530 	rate_of_requesters 	1
scalar Network1000.node530 	number_of_resources 	55000
scalar Network1000.node530 	time_period 	9
scalar Network1000.node530 	number_of_messages 	396
scalar Network1000.node530 	discovery_latency 	7440
scalar Network1000.node530 	number_of_desired_resources 	20
scalar Network1000.node530 	query_homogenity_rate 	33.333333333333
scalar Network1000.node530 	qrecord_time 	57346.911282498
scalar Network1000.node530 	discovery_resolution_rate 	50
scalar Network1000.node800 	rate_of_requesters 	1
scalar Network1000.node800 	number_of_resources 	55000
scalar Network1000.node800 	time_period 	9
scalar Network1000.node800 	number_of_messages 	102
scalar Network1000.node800 	discovery_latency 	6780
scalar Network1000.node800 	number_of_desired_resources 	20
scalar Network1000.node800 	query_homogenity_rate 	33.333333333333
scalar Network1000.node800 	qrecord_time 	57677.977433641
scalar Network1000.node800 	discovery_resolution_rate 	66.666666666667
scalar Network1000.node860 	rate_of_requesters 	1
scalar Network1000.node860 	number_of_resources 	55000
scalar Network1000.node860 	time_period 	10
scalar Network1000.node860 	number_of_messages 	277
scalar Network1000.node860 	discovery_latency 	5400
scalar Network1000.node860 	number_of_desired_resources 	20
scalar Network1000.node860 	query_homogenity_rate 	33.333333333333
scalar Network1000.node860 	qrecord_time 	58175.872578061
scalar Network1000.node860 	discovery_resolution_rate 	100
scalar Network1000.node530 	rate_of_requesters 	1
scalar Network1000.node530 	number_of_resources 	55000
scalar Network1000.node530 	time_period 	10
scalar Network1000.node530 	number_of_messages 	51
scalar Network1000.node530 	discovery_latency 	6828
scalar Network1000.node530 	number_of_desired_resources 	20
scalar Network1000.node530 	query_homogenity_rate 	33.333333333333
scalar Network1000.node530 	qrecord_time 	58275.567886803
scalar Network1000.node530 	discovery_resolution_rate 	66.666666666667
scalar Network1000.node390 	rate_of_requesters 	1
scalar Network1000.node390 	number_of_resources 	55000
scalar Network1000.node390 	time_period 	8
scalar Network1000.node390 	number_of_messages 	37
scalar Network1000.node390 	discovery_latency 	6744
scalar Network1000.node390 	number_of_desired_resources 	20
scalar Network1000.node390 	query_homogenity_rate 	33.333333333333
scalar Network1000.node390 	qrecord_time 	58835.247013049
scalar Network1000.node390 	discovery_resolution_rate 	66.666666666667
scalar Network1000.node580 	rate_of_requesters 	1
scalar Network1000.node580 	number_of_resources 	55000
scalar Network1000.node580 	time_period 	10
scalar Network1000.node580 	number_of_messages 	37
scalar Network1000.node580 	discovery_latency 	6780
scalar Network1000.node580 	number_of_desired_resources 	20
scalar Network1000.node580 	query_homogenity_rate 	33.333333333333
scalar Network1000.node580 	qrecord_time 	59172.65956602
scalar Network1000.node580 	discovery_resolution_rate 	66.666666666667
scalar Network1000.node550 	rate_of_requesters 	1
scalar Network1000.node550 	number_of_resources 	55000
scalar Network1000.node550 	time_period 	7
scalar Network1000.node550 	number_of_messages 	27
scalar Network1000.node550 	discovery_latency 	252
scalar Network1000.node550 	number_of_desired_resources 	20
scalar Network1000.node550 	query_homogenity_rate 	33.333333333333
scalar Network1000.node550 	qrecord_time 	59375.925942541
scalar Network1000.node550 	discovery_resolution_rate 	100
scalar Network1000.node390 	rate_of_requesters 	1
scalar Network1000.node390 	number_of_resources 	55000
scalar Network1000.node390 	time_period 	10
scalar Network1000.node390 	number_of_messages 	30
scalar Network1000.node390 	discovery_latency 	288
scalar Network1000.node390 	number_of_desired_resources 	20
scalar Network1000.node390 	query_homogenity_rate 	33.333333333333
scalar Network1000.node390 	qrecord_time 	60036.198938262
scalar Network1000.node390 	discovery_resolution_rate 	100
scalar Network1000.node410 	rate_of_requesters 	1
scalar Network1000.node410 	number_of_resources 	55000
scalar Network1000.node410 	time_period 	9
scalar Network1000.node410 	number_of_messages 	38
scalar Network1000.node410 	discovery_latency 	540
scalar Network1000.node410 	number_of_desired_resources 	20
scalar Network1000.node410 	query_homogenity_rate 	33.333333333333
scalar Network1000.node410 	qrecord_time 	60441.968837355
scalar Network1000.node410 	discovery_resolution_rate 	100
scalar Network1000.node30 	rate_of_requesters 	1
scalar Network1000.node30 	number_of_resources 	55000
scalar Network1000.node30 	time_period 	10
scalar Network1000.node30 	number_of_messages 	17
scalar Network1000.node30 	discovery_latency 	168
scalar Network1000.node30 	number_of_desired_resources 	20
scalar Network1000.node30 	query_homogenity_rate 	33.333333333333
scalar Network1000.node30 	qrecord_time 	61042.91570676
scalar Network1000.node30 	discovery_resolution_rate 	100
scalar Network1000.node800 	rate_of_requesters 	1
scalar Network1000.node800 	number_of_resources 	55000
scalar Network1000.node800 	time_period 	10
scalar Network1000.node800 	number_of_messages 	13
scalar Network1000.node800 	discovery_latency 	6612
scalar Network1000.node800 	number_of_desired_resources 	20
scalar Network1000.node800 	query_homogenity_rate 	33.333333333333
scalar Network1000.node800 	qrecord_time 	61758.160308699
scalar Network1000.node800 	discovery_resolution_rate 	66.666666666667
scalar Network1000.node750 	rate_of_requesters 	1
scalar Network1000.node750 	number_of_resources 	55000
scalar Network1000.node750 	time_period 	9
scalar Network1000.node750 	number_of_messages 	40
scalar Network1000.node750 	discovery_latency 	648
scalar Network1000.node750 	number_of_desired_resources 	20
scalar Network1000.node750 	query_homogenity_rate 	33.333333333333
scalar Network1000.node750 	qrecord_time 	62048.71458737
scalar Network1000.node750 	discovery_resolution_rate 	100
scalar Network1000.node830 	rate_of_requesters 	1
scalar Network1000.node830 	number_of_resources 	55000
scalar Network1000.node830 	time_period 	7
scalar Network1000.node830 	number_of_messages 	41
scalar Network1000.node830 	discovery_latency 	600
scalar Network1000.node830 	number_of_desired_resources 	20
scalar Network1000.node830 	query_homogenity_rate 	33.333333333333
scalar Network1000.node830 	qrecord_time 	62317.560319814
scalar Network1000.node830 	discovery_resolution_rate 	100
scalar Network1000.node70 	rate_of_requesters 	1
scalar Network1000.node70 	number_of_resources 	55000
scalar Network1000.node70 	time_period 	8
scalar Network1000.node70 	number_of_messages 	318
scalar Network1000.node70 	discovery_latency 	6888
scalar Network1000.node70 	number_of_desired_resources 	20
scalar Network1000.node70 	query_homogenity_rate 	33.333333333333
scalar Network1000.node70 	qrecord_time 	63582.259612155
scalar Network1000.node70 	discovery_resolution_rate 	83.333333333333
scalar Network1000.node550 	rate_of_requesters 	1
scalar Network1000.node550 	number_of_resources 	55000
scalar Network1000.node550 	time_period 	8
scalar Network1000.node550 	number_of_messages 	22
scalar Network1000.node550 	discovery_latency 	144
scalar Network1000.node550 	number_of_desired_resources 	20
scalar Network1000.node550 	query_homogenity_rate 	33.333333333333
scalar Network1000.node550 	qrecord_time 	63851.017907913
scalar Network1000.node550 	discovery_resolution_rate 	100
scalar Network1000.node640 	rate_of_requesters 	1
scalar Network1000.node640 	number_of_resources 	55000
scalar Network1000.node640 	time_period 	10
scalar Network1000.node640 	number_of_messages 	13
scalar Network1000.node640 	discovery_latency 	6900
scalar Network1000.node640 	number_of_desired_resources 	20
scalar Network1000.node640 	query_homogenity_rate 	33.333333333333
scalar Network1000.node640 	qrecord_time 	65208.751238862
scalar Network1000.node640 	discovery_resolution_rate 	66.666666666667
scalar Network1000.node660 	rate_of_requesters 	1
scalar Network1000.node660 	number_of_resources 	55000
scalar Network1000.node660 	time_period 	9
scalar Network1000.node660 	number_of_messages 	40
scalar Network1000.node660 	discovery_latency 	6912
scalar Network1000.node660 	number_of_desired_resources 	20
scalar Network1000.node660 	query_homogenity_rate 	33.333333333333
scalar Network1000.node660 	qrecord_time 	65228.378792628
scalar Network1000.node660 	discovery_resolution_rate 	66.666666666667
scalar Network1000.node660 	rate_of_requesters 	1
scalar Network1000.node660 	number_of_resources 	55000
scalar Network1000.node660 	time_period 	10
scalar Network1000.node660 	number_of_messages 	46
scalar Network1000.node660 	discovery_latency 	6828
scalar Network1000.node660 	number_of_desired_resources 	20
scalar Network1000.node660 	query_homogenity_rate 	33.333333333333
scalar Network1000.node660 	qrecord_time 	65430.898331624
scalar Network1000.node660 	discovery_resolution_rate 	66.666666666667
scalar Network1000.node70 	rate_of_requesters 	1
scalar Network1000.node70 	number_of_resources 	55000
scalar Network1000.node70 	time_period 	9
scalar Network1000.node70 	number_of_messages 	24
scalar Network1000.node70 	discovery_latency 	144.00000000001
scalar Network1000.node70 	number_of_desired_resources 	20
scalar Network1000.node70 	query_homogenity_rate 	33.333333333333
scalar Network1000.node70 	qrecord_time 	68130.159855718
scalar Network1000.node70 	discovery_resolution_rate 	100
scalar Network1000.node410 	rate_of_requesters 	1
scalar Network1000.node410 	number_of_resources 	55000
scalar Network1000.node410 	time_period 	10
scalar Network1000.node410 	number_of_messages 	27
scalar Network1000.node410 	discovery_latency 	215.99999999999
scalar Network1000.node410 	number_of_desired_resources 	20
scalar Network1000.node410 	query_homogenity_rate 	33.333333333333
scalar Network1000.node410 	qrecord_time 	68177.910241292
scalar Network1000.node410 	discovery_resolution_rate 	100
scalar Network1000.node550 	rate_of_requesters 	1
scalar Network1000.node550 	number_of_resources 	55000
scalar Network1000.node550 	time_period 	9
scalar Network1000.node550 	number_of_messages 	22
scalar Network1000.node550 	discovery_latency 	144.00000000001
scalar Network1000.node550 	number_of_desired_resources 	20
scalar Network1000.node550 	query_homogenity_rate 	33.333333333333
scalar Network1000.node550 	qrecord_time 	68693.211090128
scalar Network1000.node550 	discovery_resolution_rate 	100
scalar Network1000.node430 	rate_of_requesters 	1
scalar Network1000.node430 	number_of_resources 	55000
scalar Network1000.node430 	time_period 	10
scalar Network1000.node430 	number_of_messages 	24
scalar Network1000.node430 	discovery_latency 	191.99999999999
scalar Network1000.node430 	number_of_desired_resources 	20
scalar Network1000.node430 	query_homogenity_rate 	33.333333333333
scalar Network1000.node430 	qrecord_time 	69743.063198123
scalar Network1000.node430 	discovery_resolution_rate 	100
scalar Network1000.node830 	rate_of_requesters 	1
scalar Network1000.node830 	number_of_resources 	55000
scalar Network1000.node830 	time_period 	8
scalar Network1000.node830 	number_of_messages 	25
scalar Network1000.node830 	discovery_latency 	215.99999999999
scalar Network1000.node830 	number_of_desired_resources 	20
scalar Network1000.node830 	query_homogenity_rate 	33.333333333333
scalar Network1000.node830 	qrecord_time 	73359.288215884
scalar Network1000.node830 	discovery_resolution_rate 	100
scalar Network1000.node70 	rate_of_requesters 	1
scalar Network1000.node70 	number_of_resources 	55000
scalar Network1000.node70 	time_period 	10
scalar Network1000.node70 	number_of_messages 	24
scalar Network1000.node70 	discovery_latency 	144.00000000001
scalar Network1000.node70 	number_of_desired_resources 	20
scalar Network1000.node70 	query_homogenity_rate 	33.333333333333
scalar Network1000.node70 	qrecord_time 	73654.591884545
scalar Network1000.node70 	discovery_resolution_rate 	100
scalar Network1000.node550 	rate_of_requesters 	1
scalar Network1000.node550 	number_of_resources 	55000
scalar Network1000.node550 	time_period 	10
scalar Network1000.node550 	number_of_messages 	22
scalar Network1000.node550 	discovery_latency 	144.00000000001
scalar Network1000.node550 	number_of_desired_resources 	20
scalar Network1000.node550 	query_homogenity_rate 	33.333333333333
scalar Network1000.node550 	qrecord_time 	75489.243546365
scalar Network1000.node550 	discovery_resolution_rate 	100
scalar Network1000.node830 	rate_of_requesters 	1
scalar Network1000.node830 	number_of_resources 	55000
scalar Network1000.node830 	time_period 	9
scalar Network1000.node830 	number_of_messages 	25
scalar Network1000.node830 	discovery_latency 	216.00000000001
scalar Network1000.node830 	number_of_desired_resources 	20
scalar Network1000.node830 	query_homogenity_rate 	33.333333333333
scalar Network1000.node830 	qrecord_time 	79372.122876562
scalar Network1000.node830 	discovery_resolution_rate 	100
scalar Network1000.node830 	rate_of_requesters 	1
scalar Network1000.node830 	number_of_resources 	55000
scalar Network1000.node830 	time_period 	10
scalar Network1000.node830 	number_of_messages 	25
scalar Network1000.node830 	discovery_latency 	216.00000000001
scalar Network1000.node830 	number_of_desired_resources 	20
scalar Network1000.node830 	query_homogenity_rate 	33.333333333333
scalar Network1000.node830 	qrecord_time 	86638.864993693
scalar Network1000.node830 	discovery_resolution_rate 	100
scalar Network1000.node750 	rate_of_requesters 	1
scalar Network1000.node750 	number_of_resources 	55000
scalar Network1000.node750 	time_period 	10
scalar Network1000.node750 	number_of_messages 	19
scalar Network1000.node750 	discovery_latency 	132.00000000001
scalar Network1000.node750 	number_of_desired_resources 	20
scalar Network1000.node750 	query_homogenity_rate 	33.333333333333
scalar Network1000.node750 	qrecord_time 	88840.159601544
scalar Network1000.node750 	discovery_resolution_rate 	100
