version 2
run net1000-0-20150717-17:32:45-24283
attr as 1
attr configname net1000
attr datetime 20150717-17:32:45
attr dnor 20
attr experiment net1000
attr inifile omnetpp.ini
attr iterationvars "$rhdrq=3, $dnor=20, $as=1"
attr iterationvars2 "$rhdrq=3, $dnor=20, $as=1, $repetition=0"
attr measurement "$rhdrq=3, $dnor=20, $as=1"
attr network Network1000
attr processid 24283
attr repetition 0
attr replication #0
attr resultdir results
attr rhdrq 3
attr runnumber 0
attr seedset 0

scalar . 	as 	1
scalar . 	dnor 	20
scalar . 	rhdrq 	3
scalar Network1000.node950 	rate_of_requesters 	1
scalar Network1000.node950 	number_of_resources 	55000
scalar Network1000.node950 	time_period 	1
scalar Network1000.node950 	number_of_messages 	20
scalar Network1000.node950 	discovery_latency 	132
scalar Network1000.node950 	number_of_desired_resources 	20
scalar Network1000.node950 	query_homogenity_rate 	33.333333333333
scalar Network1000.node950 	qrecord_time 	4846
scalar Network1000.node950 	discovery_resolution_rate 	100
scalar Network1000.node740 	rate_of_requesters 	1
scalar Network1000.node740 	number_of_resources 	55000
scalar Network1000.node740 	time_period 	1
scalar Network1000.node740 	number_of_messages 	18
scalar Network1000.node740 	discovery_latency 	6060
scalar Network1000.node740 	number_of_desired_resources 	20
scalar Network1000.node740 	query_homogenity_rate 	33.333333333333
scalar Network1000.node740 	qrecord_time 	10786
scalar Network1000.node740 	discovery_resolution_rate 	66.666666666667
scalar Network1000.node930 	rate_of_requesters 	1
scalar Network1000.node930 	number_of_resources 	55000
scalar Network1000.node930 	time_period 	1
scalar Network1000.node930 	number_of_messages 	25
scalar Network1000.node930 	discovery_latency 	6060
scalar Network1000.node930 	number_of_desired_resources 	20
scalar Network1000.node930 	query_homogenity_rate 	33.333333333333
scalar Network1000.node930 	qrecord_time 	10870
scalar Network1000.node930 	discovery_resolution_rate 	66.666666666667
scalar Network1000.node190 	rate_of_requesters 	1
scalar Network1000.node190 	number_of_resources 	55000
scalar Network1000.node190 	time_period 	1
scalar Network1000.node190 	number_of_messages 	13
scalar Network1000.node190 	discovery_latency 	6168
scalar Network1000.node190 	number_of_desired_resources 	20
scalar Network1000.node190 	query_homogenity_rate 	33.333333333333
scalar Network1000.node190 	qrecord_time 	10900
scalar Network1000.node190 	discovery_resolution_rate 	66.666666666667
scalar Network1000.node220 	rate_of_requesters 	1
scalar Network1000.node220 	number_of_resources 	55000
scalar Network1000.node220 	time_period 	1
scalar Network1000.node220 	number_of_messages 	15
scalar Network1000.node220 	discovery_latency 	6204
scalar Network1000.node220 	number_of_desired_resources 	20
scalar Network1000.node220 	query_homogenity_rate 	33.333333333333
scalar Network1000.node220 	qrecord_time 	10936
scalar Network1000.node220 	discovery_resolution_rate 	66.666666666667
scalar Network1000.node210 	rate_of_requesters 	1
scalar Network1000.node210 	number_of_resources 	55000
scalar Network1000.node210 	time_period 	1
scalar Network1000.node210 	number_of_messages 	24
scalar Network1000.node210 	discovery_latency 	6216
scalar Network1000.node210 	number_of_desired_resources 	20
scalar Network1000.node210 	query_homogenity_rate 	33.333333333333
scalar Network1000.node210 	qrecord_time 	10948
scalar Network1000.node210 	discovery_resolution_rate 	66.666666666667
scalar Network1000.node370 	rate_of_requesters 	1
scalar Network1000.node370 	number_of_resources 	55000
scalar Network1000.node370 	time_period 	1
scalar Network1000.node370 	number_of_messages 	13
scalar Network1000.node370 	discovery_latency 	6312
scalar Network1000.node370 	number_of_desired_resources 	20
scalar Network1000.node370 	query_homogenity_rate 	33.333333333333
scalar Network1000.node370 	qrecord_time 	10954
scalar Network1000.node370 	discovery_resolution_rate 	33.333333333333
scalar Network1000.node470 	rate_of_requesters 	1
scalar Network1000.node470 	number_of_resources 	55000
scalar Network1000.node470 	time_period 	1
scalar Network1000.node470 	number_of_messages 	4
scalar Network1000.node470 	discovery_latency 	6270
scalar Network1000.node470 	number_of_desired_resources 	20
scalar Network1000.node470 	query_homogenity_rate 	33.333333333333
scalar Network1000.node470 	qrecord_time 	10990
scalar Network1000.node470 	discovery_resolution_rate 	33.333333333333
scalar Network1000.node760 	rate_of_requesters 	1
scalar Network1000.node760 	number_of_resources 	55000
scalar Network1000.node760 	time_period 	1
scalar Network1000.node760 	number_of_messages 	10
scalar Network1000.node760 	discovery_latency 	6312
scalar Network1000.node760 	number_of_desired_resources 	20
scalar Network1000.node760 	query_homogenity_rate 	33.333333333333
scalar Network1000.node760 	qrecord_time 	11002
scalar Network1000.node760 	discovery_resolution_rate 	33.333333333333
scalar Network1000.node630 	rate_of_requesters 	1
scalar Network1000.node630 	number_of_resources 	55000
scalar Network1000.node630 	time_period 	1
scalar Network1000.node630 	number_of_messages 	12
scalar Network1000.node630 	discovery_latency 	6222
scalar Network1000.node630 	number_of_desired_resources 	20
scalar Network1000.node630 	query_homogenity_rate 	33.333333333333
scalar Network1000.node630 	qrecord_time 	11014
scalar Network1000.node630 	discovery_resolution_rate 	66.666666666667
scalar Network1000.node710 	rate_of_requesters 	1
scalar Network1000.node710 	number_of_resources 	55000
scalar Network1000.node710 	time_period 	1
scalar Network1000.node710 	number_of_messages 	10
scalar Network1000.node710 	discovery_latency 	6288
scalar Network1000.node710 	number_of_desired_resources 	20
scalar Network1000.node710 	query_homogenity_rate 	33.333333333333
scalar Network1000.node710 	qrecord_time 	11014
scalar Network1000.node710 	discovery_resolution_rate 	33.333333333333
scalar Network1000.node250 	rate_of_requesters 	1
scalar Network1000.node250 	number_of_resources 	55000
scalar Network1000.node250 	time_period 	1
scalar Network1000.node250 	number_of_messages 	19
scalar Network1000.node250 	discovery_latency 	6312
scalar Network1000.node250 	number_of_desired_resources 	20
scalar Network1000.node250 	query_homogenity_rate 	33.333333333333
scalar Network1000.node250 	qrecord_time 	11020
scalar Network1000.node250 	discovery_resolution_rate 	33.333333333333
scalar Network1000.node670 	rate_of_requesters 	1
scalar Network1000.node670 	number_of_resources 	55000
scalar Network1000.node670 	time_period 	1
scalar Network1000.node670 	number_of_messages 	2
scalar Network1000.node670 	discovery_latency 	6312
scalar Network1000.node670 	number_of_desired_resources 	20
scalar Network1000.node670 	query_homogenity_rate 	33.333333333333
scalar Network1000.node670 	qrecord_time 	11026
scalar Network1000.node670 	discovery_resolution_rate 	0
scalar Network1000.node340 	rate_of_requesters 	1
scalar Network1000.node340 	number_of_resources 	55000
scalar Network1000.node340 	time_period 	1
scalar Network1000.node340 	number_of_messages 	23
scalar Network1000.node340 	discovery_latency 	6276
scalar Network1000.node340 	number_of_desired_resources 	20
scalar Network1000.node340 	query_homogenity_rate 	33.333333333333
scalar Network1000.node340 	qrecord_time 	11032
scalar Network1000.node340 	discovery_resolution_rate 	66.666666666667
scalar Network1000.node520 	rate_of_requesters 	1
scalar Network1000.node520 	number_of_resources 	55000
scalar Network1000.node520 	time_period 	1
scalar Network1000.node520 	number_of_messages 	24
scalar Network1000.node520 	discovery_latency 	6270
scalar Network1000.node520 	number_of_desired_resources 	20
scalar Network1000.node520 	query_homogenity_rate 	33.333333333333
scalar Network1000.node520 	qrecord_time 	11032
scalar Network1000.node520 	discovery_resolution_rate 	66.666666666667
scalar Network1000.node440 	rate_of_requesters 	1
scalar Network1000.node440 	number_of_resources 	55000
scalar Network1000.node440 	time_period 	1
scalar Network1000.node440 	number_of_messages 	11
scalar Network1000.node440 	discovery_latency 	6330
scalar Network1000.node440 	number_of_desired_resources 	20
scalar Network1000.node440 	query_homogenity_rate 	33.333333333333
scalar Network1000.node440 	qrecord_time 	11038
scalar Network1000.node440 	discovery_resolution_rate 	33.333333333333
scalar Network1000.node350 	rate_of_requesters 	1
scalar Network1000.node350 	number_of_resources 	55000
scalar Network1000.node350 	time_period 	1
scalar Network1000.node350 	number_of_messages 	21
scalar Network1000.node350 	discovery_latency 	6330
scalar Network1000.node350 	number_of_desired_resources 	20
scalar Network1000.node350 	query_homogenity_rate 	33.333333333333
scalar Network1000.node350 	qrecord_time 	11038
scalar Network1000.node350 	discovery_resolution_rate 	33.333333333333
scalar Network1000.node170 	rate_of_requesters 	1
scalar Network1000.node170 	number_of_resources 	55000
scalar Network1000.node170 	time_period 	1
scalar Network1000.node170 	number_of_messages 	2
scalar Network1000.node170 	discovery_latency 	6342
scalar Network1000.node170 	number_of_desired_resources 	20
scalar Network1000.node170 	query_homogenity_rate 	33.333333333333
scalar Network1000.node170 	qrecord_time 	11056
scalar Network1000.node170 	discovery_resolution_rate 	0
scalar Network1000.node540 	rate_of_requesters 	1
scalar Network1000.node540 	number_of_resources 	55000
scalar Network1000.node540 	time_period 	1
scalar Network1000.node540 	number_of_messages 	31
scalar Network1000.node540 	discovery_latency 	6312
scalar Network1000.node540 	number_of_desired_resources 	20
scalar Network1000.node540 	query_homogenity_rate 	33.333333333333
scalar Network1000.node540 	qrecord_time 	11062
scalar Network1000.node540 	discovery_resolution_rate 	66.666666666667
scalar Network1000.node450 	rate_of_requesters 	1
scalar Network1000.node450 	number_of_resources 	55000
scalar Network1000.node450 	time_period 	1
scalar Network1000.node450 	number_of_messages 	2
scalar Network1000.node450 	discovery_latency 	6444
scalar Network1000.node450 	number_of_desired_resources 	20
scalar Network1000.node450 	query_homogenity_rate 	33.333333333333
scalar Network1000.node450 	qrecord_time 	11086
scalar Network1000.node450 	discovery_resolution_rate 	0
scalar Network1000.node70 	rate_of_requesters 	1
scalar Network1000.node70 	number_of_resources 	55000
scalar Network1000.node70 	time_period 	1
scalar Network1000.node70 	number_of_messages 	8
scalar Network1000.node70 	discovery_latency 	6372
scalar Network1000.node70 	number_of_desired_resources 	20
scalar Network1000.node70 	query_homogenity_rate 	33.333333333333
scalar Network1000.node70 	qrecord_time 	11086
scalar Network1000.node70 	discovery_resolution_rate 	33.333333333333
scalar Network1000.node160 	rate_of_requesters 	1
scalar Network1000.node160 	number_of_resources 	55000
scalar Network1000.node160 	time_period 	1
scalar Network1000.node160 	number_of_messages 	21
scalar Network1000.node160 	discovery_latency 	6348
scalar Network1000.node160 	number_of_desired_resources 	20
scalar Network1000.node160 	query_homogenity_rate 	33.333333333333
scalar Network1000.node160 	qrecord_time 	11098
scalar Network1000.node160 	discovery_resolution_rate 	33.333333333333
scalar Network1000.node730 	rate_of_requesters 	1
scalar Network1000.node730 	number_of_resources 	55000
scalar Network1000.node730 	time_period 	1
scalar Network1000.node730 	number_of_messages 	19
scalar Network1000.node730 	discovery_latency 	6312
scalar Network1000.node730 	number_of_desired_resources 	20
scalar Network1000.node730 	query_homogenity_rate 	33.333333333333
scalar Network1000.node730 	qrecord_time 	11098
scalar Network1000.node730 	discovery_resolution_rate 	66.666666666667
scalar Network1000.node640 	rate_of_requesters 	1
scalar Network1000.node640 	number_of_resources 	55000
scalar Network1000.node640 	time_period 	1
scalar Network1000.node640 	number_of_messages 	15
scalar Network1000.node640 	discovery_latency 	6372
scalar Network1000.node640 	number_of_desired_resources 	20
scalar Network1000.node640 	query_homogenity_rate 	33.333333333333
scalar Network1000.node640 	qrecord_time 	11098
scalar Network1000.node640 	discovery_resolution_rate 	66.666666666667
scalar Network1000.node110 	rate_of_requesters 	1
scalar Network1000.node110 	number_of_resources 	55000
scalar Network1000.node110 	time_period 	1
scalar Network1000.node110 	number_of_messages 	2
scalar Network1000.node110 	discovery_latency 	6408
scalar Network1000.node110 	number_of_desired_resources 	20
scalar Network1000.node110 	query_homogenity_rate 	33.333333333333
scalar Network1000.node110 	qrecord_time 	11098
scalar Network1000.node110 	discovery_resolution_rate 	0
scalar Network1000.node630 	rate_of_requesters 	1
scalar Network1000.node630 	number_of_resources 	55000
scalar Network1000.node630 	time_period 	2
scalar Network1000.node630 	number_of_messages 	286
scalar Network1000.node630 	discovery_latency 	6282
scalar Network1000.node630 	number_of_desired_resources 	20
scalar Network1000.node630 	query_homogenity_rate 	33.333333333333
scalar Network1000.node630 	qrecord_time 	11103.743612122
scalar Network1000.node630 	discovery_resolution_rate 	50
scalar Network1000.node600 	rate_of_requesters 	1
scalar Network1000.node600 	number_of_resources 	55000
scalar Network1000.node600 	time_period 	1
scalar Network1000.node600 	number_of_messages 	15
scalar Network1000.node600 	discovery_latency 	6384
scalar Network1000.node600 	number_of_desired_resources 	20
scalar Network1000.node600 	query_homogenity_rate 	33.333333333333
scalar Network1000.node600 	qrecord_time 	11104
scalar Network1000.node600 	discovery_resolution_rate 	66.666666666667
scalar Network1000.node80 	rate_of_requesters 	1
scalar Network1000.node80 	number_of_resources 	55000
scalar Network1000.node80 	time_period 	1
scalar Network1000.node80 	number_of_messages 	296
scalar Network1000.node80 	discovery_latency 	6396
scalar Network1000.node80 	number_of_desired_resources 	20
scalar Network1000.node80 	query_homogenity_rate 	33.333333333333
scalar Network1000.node80 	qrecord_time 	11110
scalar Network1000.node80 	discovery_resolution_rate 	16.666666666667
scalar Network1000.node90 	rate_of_requesters 	1
scalar Network1000.node90 	number_of_resources 	55000
scalar Network1000.node90 	time_period 	1
scalar Network1000.node90 	number_of_messages 	9
scalar Network1000.node90 	discovery_latency 	6402
scalar Network1000.node90 	number_of_desired_resources 	20
scalar Network1000.node90 	query_homogenity_rate 	33.333333333333
scalar Network1000.node90 	qrecord_time 	11116
scalar Network1000.node90 	discovery_resolution_rate 	33.333333333333
scalar Network1000.node810 	rate_of_requesters 	1
scalar Network1000.node810 	number_of_resources 	55000
scalar Network1000.node810 	time_period 	1
scalar Network1000.node810 	number_of_messages 	2
scalar Network1000.node810 	discovery_latency 	6402
scalar Network1000.node810 	number_of_desired_resources 	20
scalar Network1000.node810 	query_homogenity_rate 	33.333333333333
scalar Network1000.node810 	qrecord_time 	11116
scalar Network1000.node810 	discovery_resolution_rate 	0
scalar Network1000.node830 	rate_of_requesters 	1
scalar Network1000.node830 	number_of_resources 	55000
scalar Network1000.node830 	time_period 	1
scalar Network1000.node830 	number_of_messages 	6
scalar Network1000.node830 	discovery_latency 	6426
scalar Network1000.node830 	number_of_desired_resources 	20
scalar Network1000.node830 	query_homogenity_rate 	33.333333333333
scalar Network1000.node830 	qrecord_time 	11116
scalar Network1000.node830 	discovery_resolution_rate 	33.333333333333
scalar Network1000.node970 	rate_of_requesters 	1
scalar Network1000.node970 	number_of_resources 	55000
scalar Network1000.node970 	time_period 	1
scalar Network1000.node970 	number_of_messages 	286
scalar Network1000.node970 	discovery_latency 	6384
scalar Network1000.node970 	number_of_desired_resources 	20
scalar Network1000.node970 	query_homogenity_rate 	33.333333333333
scalar Network1000.node970 	qrecord_time 	11116
scalar Network1000.node970 	discovery_resolution_rate 	50
scalar Network1000.node0 	rate_of_requesters 	1
scalar Network1000.node0 	number_of_resources 	55000
scalar Network1000.node0 	time_period 	1
scalar Network1000.node0 	number_of_messages 	5
scalar Network1000.node0 	discovery_latency 	6372
scalar Network1000.node0 	number_of_desired_resources 	20
scalar Network1000.node0 	query_homogenity_rate 	33.333333333333
scalar Network1000.node0 	qrecord_time 	11116
scalar Network1000.node0 	discovery_resolution_rate 	33.333333333333
scalar Network1000.node940 	rate_of_requesters 	1
scalar Network1000.node940 	number_of_resources 	55000
scalar Network1000.node940 	time_period 	1
scalar Network1000.node940 	number_of_messages 	13
scalar Network1000.node940 	discovery_latency 	6420
scalar Network1000.node940 	number_of_desired_resources 	20
scalar Network1000.node940 	query_homogenity_rate 	33.333333333333
scalar Network1000.node940 	qrecord_time 	11128
scalar Network1000.node940 	discovery_resolution_rate 	33.333333333333
scalar Network1000.node280 	rate_of_requesters 	1
scalar Network1000.node280 	number_of_resources 	55000
scalar Network1000.node280 	time_period 	1
scalar Network1000.node280 	number_of_messages 	13
scalar Network1000.node280 	discovery_latency 	6366
scalar Network1000.node280 	number_of_desired_resources 	20
scalar Network1000.node280 	query_homogenity_rate 	33.333333333333
scalar Network1000.node280 	qrecord_time 	11134
scalar Network1000.node280 	discovery_resolution_rate 	33.333333333333
scalar Network1000.node410 	rate_of_requesters 	1
scalar Network1000.node410 	number_of_resources 	55000
scalar Network1000.node410 	time_period 	1
scalar Network1000.node410 	number_of_messages 	8
scalar Network1000.node410 	discovery_latency 	6414
scalar Network1000.node410 	number_of_desired_resources 	20
scalar Network1000.node410 	query_homogenity_rate 	33.333333333333
scalar Network1000.node410 	qrecord_time 	11134
scalar Network1000.node410 	discovery_resolution_rate 	33.333333333333
scalar Network1000.node720 	rate_of_requesters 	1
scalar Network1000.node720 	number_of_resources 	55000
scalar Network1000.node720 	time_period 	1
scalar Network1000.node720 	number_of_messages 	22
scalar Network1000.node720 	discovery_latency 	6498
scalar Network1000.node720 	number_of_desired_resources 	20
scalar Network1000.node720 	query_homogenity_rate 	33.333333333333
scalar Network1000.node720 	qrecord_time 	11140
scalar Network1000.node720 	discovery_resolution_rate 	33.333333333333
scalar Network1000.node750 	rate_of_requesters 	1
scalar Network1000.node750 	number_of_resources 	55000
scalar Network1000.node750 	time_period 	1
scalar Network1000.node750 	number_of_messages 	0
scalar Network1000.node750 	discovery_latency 	6444
scalar Network1000.node750 	number_of_desired_resources 	20
scalar Network1000.node750 	query_homogenity_rate 	33.333333333333
scalar Network1000.node750 	qrecord_time 	11140
scalar Network1000.node750 	discovery_resolution_rate 	0
scalar Network1000.node430 	rate_of_requesters 	1
scalar Network1000.node430 	number_of_resources 	55000
scalar Network1000.node430 	time_period 	1
scalar Network1000.node430 	number_of_messages 	296
scalar Network1000.node430 	discovery_latency 	6420
scalar Network1000.node430 	number_of_desired_resources 	20
scalar Network1000.node430 	query_homogenity_rate 	33.333333333333
scalar Network1000.node430 	qrecord_time 	11146
scalar Network1000.node430 	discovery_resolution_rate 	16.666666666667
scalar Network1000.node580 	rate_of_requesters 	1
scalar Network1000.node580 	number_of_resources 	55000
scalar Network1000.node580 	time_period 	1
scalar Network1000.node580 	number_of_messages 	7
scalar Network1000.node580 	discovery_latency 	6438
scalar Network1000.node580 	number_of_desired_resources 	20
scalar Network1000.node580 	query_homogenity_rate 	33.333333333333
scalar Network1000.node580 	qrecord_time 	11146
scalar Network1000.node580 	discovery_resolution_rate 	33.333333333333
scalar Network1000.node310 	rate_of_requesters 	1
scalar Network1000.node310 	number_of_resources 	55000
scalar Network1000.node310 	time_period 	1
scalar Network1000.node310 	number_of_messages 	15
scalar Network1000.node310 	discovery_latency 	6456
scalar Network1000.node310 	number_of_desired_resources 	20
scalar Network1000.node310 	query_homogenity_rate 	33.333333333333
scalar Network1000.node310 	qrecord_time 	11146
scalar Network1000.node310 	discovery_resolution_rate 	33.333333333333
scalar Network1000.node30 	rate_of_requesters 	1
scalar Network1000.node30 	number_of_resources 	55000
scalar Network1000.node30 	time_period 	1
scalar Network1000.node30 	number_of_messages 	287
scalar Network1000.node30 	discovery_latency 	6420
scalar Network1000.node30 	number_of_desired_resources 	20
scalar Network1000.node30 	query_homogenity_rate 	33.333333333333
scalar Network1000.node30 	qrecord_time 	11152
scalar Network1000.node30 	discovery_resolution_rate 	50
scalar Network1000.node530 	rate_of_requesters 	1
scalar Network1000.node530 	number_of_resources 	55000
scalar Network1000.node530 	time_period 	1
scalar Network1000.node530 	number_of_messages 	19
scalar Network1000.node530 	discovery_latency 	6402
scalar Network1000.node530 	number_of_desired_resources 	20
scalar Network1000.node530 	query_homogenity_rate 	33.333333333333
scalar Network1000.node530 	qrecord_time 	11152
scalar Network1000.node530 	discovery_resolution_rate 	33.333333333333
scalar Network1000.node320 	rate_of_requesters 	1
scalar Network1000.node320 	number_of_resources 	55000
scalar Network1000.node320 	time_period 	1
scalar Network1000.node320 	number_of_messages 	11
scalar Network1000.node320 	discovery_latency 	6444
scalar Network1000.node320 	number_of_desired_resources 	20
scalar Network1000.node320 	query_homogenity_rate 	33.333333333333
scalar Network1000.node320 	qrecord_time 	11152
scalar Network1000.node320 	discovery_resolution_rate 	33.333333333333
scalar Network1000.node290 	rate_of_requesters 	1
scalar Network1000.node290 	number_of_resources 	55000
scalar Network1000.node290 	time_period 	1
scalar Network1000.node290 	number_of_messages 	23
scalar Network1000.node290 	discovery_latency 	6456
scalar Network1000.node290 	number_of_desired_resources 	20
scalar Network1000.node290 	query_homogenity_rate 	33.333333333333
scalar Network1000.node290 	qrecord_time 	11164
scalar Network1000.node290 	discovery_resolution_rate 	33.333333333333
scalar Network1000.node890 	rate_of_requesters 	1
scalar Network1000.node890 	number_of_resources 	55000
scalar Network1000.node890 	time_period 	1
scalar Network1000.node890 	number_of_messages 	2
scalar Network1000.node890 	discovery_latency 	6444
scalar Network1000.node890 	number_of_desired_resources 	20
scalar Network1000.node890 	query_homogenity_rate 	33.333333333333
scalar Network1000.node890 	qrecord_time 	11170
scalar Network1000.node890 	discovery_resolution_rate 	0
scalar Network1000.node650 	rate_of_requesters 	1
scalar Network1000.node650 	number_of_resources 	55000
scalar Network1000.node650 	time_period 	1
scalar Network1000.node650 	number_of_messages 	2
scalar Network1000.node650 	discovery_latency 	6438
scalar Network1000.node650 	number_of_desired_resources 	20
scalar Network1000.node650 	query_homogenity_rate 	33.333333333333
scalar Network1000.node650 	qrecord_time 	11170
scalar Network1000.node650 	discovery_resolution_rate 	0
scalar Network1000.node560 	rate_of_requesters 	1
scalar Network1000.node560 	number_of_resources 	55000
scalar Network1000.node560 	time_period 	1
scalar Network1000.node560 	number_of_messages 	2
scalar Network1000.node560 	discovery_latency 	6360
scalar Network1000.node560 	number_of_desired_resources 	20
scalar Network1000.node560 	query_homogenity_rate 	33.333333333333
scalar Network1000.node560 	qrecord_time 	11176
scalar Network1000.node560 	discovery_resolution_rate 	0
scalar Network1000.node590 	rate_of_requesters 	1
scalar Network1000.node590 	number_of_resources 	55000
scalar Network1000.node590 	time_period 	1
scalar Network1000.node590 	number_of_messages 	0
scalar Network1000.node590 	discovery_latency 	6528
scalar Network1000.node590 	number_of_desired_resources 	20
scalar Network1000.node590 	query_homogenity_rate 	33.333333333333
scalar Network1000.node590 	qrecord_time 	11176
scalar Network1000.node590 	discovery_resolution_rate 	0
scalar Network1000.node70 	rate_of_requesters 	1
scalar Network1000.node70 	number_of_resources 	55000
scalar Network1000.node70 	time_period 	2
scalar Network1000.node70 	number_of_messages 	2
scalar Network1000.node70 	discovery_latency 	6456
scalar Network1000.node70 	number_of_desired_resources 	20
scalar Network1000.node70 	query_homogenity_rate 	33.333333333333
scalar Network1000.node70 	qrecord_time 	11192.642200509
scalar Network1000.node70 	discovery_resolution_rate 	0
scalar Network1000.node480 	rate_of_requesters 	1
scalar Network1000.node480 	number_of_resources 	55000
scalar Network1000.node480 	time_period 	1
scalar Network1000.node480 	number_of_messages 	298
scalar Network1000.node480 	discovery_latency 	6444
scalar Network1000.node480 	number_of_desired_resources 	20
scalar Network1000.node480 	query_homogenity_rate 	33.333333333333
scalar Network1000.node480 	qrecord_time 	11194
scalar Network1000.node480 	discovery_resolution_rate 	50
scalar Network1000.node100 	rate_of_requesters 	1
scalar Network1000.node100 	number_of_resources 	55000
scalar Network1000.node100 	time_period 	1
scalar Network1000.node100 	number_of_messages 	2
scalar Network1000.node100 	discovery_latency 	6504
scalar Network1000.node100 	number_of_desired_resources 	20
scalar Network1000.node100 	query_homogenity_rate 	33.333333333333
scalar Network1000.node100 	qrecord_time 	11194
scalar Network1000.node100 	discovery_resolution_rate 	0
scalar Network1000.node420 	rate_of_requesters 	1
scalar Network1000.node420 	number_of_resources 	55000
scalar Network1000.node420 	time_period 	1
scalar Network1000.node420 	number_of_messages 	15
scalar Network1000.node420 	discovery_latency 	6444
scalar Network1000.node420 	number_of_desired_resources 	20
scalar Network1000.node420 	query_homogenity_rate 	33.333333333333
scalar Network1000.node420 	qrecord_time 	11194
scalar Network1000.node420 	discovery_resolution_rate 	33.333333333333
scalar Network1000.node820 	rate_of_requesters 	1
scalar Network1000.node820 	number_of_resources 	55000
scalar Network1000.node820 	time_period 	1
scalar Network1000.node820 	number_of_messages 	12
scalar Network1000.node820 	discovery_latency 	6438
scalar Network1000.node820 	number_of_desired_resources 	20
scalar Network1000.node820 	query_homogenity_rate 	33.333333333333
scalar Network1000.node820 	qrecord_time 	11194
scalar Network1000.node820 	discovery_resolution_rate 	33.333333333333
scalar Network1000.node260 	rate_of_requesters 	1
scalar Network1000.node260 	number_of_resources 	55000
scalar Network1000.node260 	time_period 	1
scalar Network1000.node260 	number_of_messages 	6
scalar Network1000.node260 	discovery_latency 	6432
scalar Network1000.node260 	number_of_desired_resources 	20
scalar Network1000.node260 	query_homogenity_rate 	33.333333333333
scalar Network1000.node260 	qrecord_time 	11200
scalar Network1000.node260 	discovery_resolution_rate 	33.333333333333
scalar Network1000.node230 	rate_of_requesters 	1
scalar Network1000.node230 	number_of_resources 	55000
scalar Network1000.node230 	time_period 	1
scalar Network1000.node230 	number_of_messages 	2
scalar Network1000.node230 	discovery_latency 	6372
scalar Network1000.node230 	number_of_desired_resources 	20
scalar Network1000.node230 	query_homogenity_rate 	33.333333333333
scalar Network1000.node230 	qrecord_time 	11206
scalar Network1000.node230 	discovery_resolution_rate 	0
scalar Network1000.node860 	rate_of_requesters 	1
scalar Network1000.node860 	number_of_resources 	55000
scalar Network1000.node860 	time_period 	1
scalar Network1000.node860 	number_of_messages 	2
scalar Network1000.node860 	discovery_latency 	6456
scalar Network1000.node860 	number_of_desired_resources 	20
scalar Network1000.node860 	query_homogenity_rate 	33.333333333333
scalar Network1000.node860 	qrecord_time 	11212
scalar Network1000.node860 	discovery_resolution_rate 	0
scalar Network1000.node850 	rate_of_requesters 	1
scalar Network1000.node850 	number_of_resources 	55000
scalar Network1000.node850 	time_period 	1
scalar Network1000.node850 	number_of_messages 	2
scalar Network1000.node850 	discovery_latency 	6498
scalar Network1000.node850 	number_of_desired_resources 	20
scalar Network1000.node850 	query_homogenity_rate 	33.333333333333
scalar Network1000.node850 	qrecord_time 	11212
scalar Network1000.node850 	discovery_resolution_rate 	0
scalar Network1000.node390 	rate_of_requesters 	1
scalar Network1000.node390 	number_of_resources 	55000
scalar Network1000.node390 	time_period 	1
scalar Network1000.node390 	number_of_messages 	2
scalar Network1000.node390 	discovery_latency 	6504
scalar Network1000.node390 	number_of_desired_resources 	20
scalar Network1000.node390 	query_homogenity_rate 	33.333333333333
scalar Network1000.node390 	qrecord_time 	11218
scalar Network1000.node390 	discovery_resolution_rate 	0
scalar Network1000.node690 	rate_of_requesters 	1
scalar Network1000.node690 	number_of_resources 	55000
scalar Network1000.node690 	time_period 	1
scalar Network1000.node690 	number_of_messages 	2
scalar Network1000.node690 	discovery_latency 	6492
scalar Network1000.node690 	number_of_desired_resources 	20
scalar Network1000.node690 	query_homogenity_rate 	33.333333333333
scalar Network1000.node690 	qrecord_time 	11218
scalar Network1000.node690 	discovery_resolution_rate 	0
scalar Network1000.node10 	rate_of_requesters 	1
scalar Network1000.node10 	number_of_resources 	55000
scalar Network1000.node10 	time_period 	1
scalar Network1000.node10 	number_of_messages 	18
scalar Network1000.node10 	discovery_latency 	6492
scalar Network1000.node10 	number_of_desired_resources 	20
scalar Network1000.node10 	query_homogenity_rate 	33.333333333333
scalar Network1000.node10 	qrecord_time 	11224
scalar Network1000.node10 	discovery_resolution_rate 	33.333333333333
scalar Network1000.node790 	rate_of_requesters 	1
scalar Network1000.node790 	number_of_resources 	55000
scalar Network1000.node790 	time_period 	1
scalar Network1000.node790 	number_of_messages 	2
scalar Network1000.node790 	discovery_latency 	6516
scalar Network1000.node790 	number_of_desired_resources 	20
scalar Network1000.node790 	query_homogenity_rate 	33.333333333333
scalar Network1000.node790 	qrecord_time 	11224
scalar Network1000.node790 	discovery_resolution_rate 	0
scalar Network1000.node840 	rate_of_requesters 	1
scalar Network1000.node840 	number_of_resources 	55000
scalar Network1000.node840 	time_period 	1
scalar Network1000.node840 	number_of_messages 	2
scalar Network1000.node840 	discovery_latency 	6474
scalar Network1000.node840 	number_of_desired_resources 	20
scalar Network1000.node840 	query_homogenity_rate 	33.333333333333
scalar Network1000.node840 	qrecord_time 	11224
scalar Network1000.node840 	discovery_resolution_rate 	0
scalar Network1000.node150 	rate_of_requesters 	1
scalar Network1000.node150 	number_of_resources 	55000
scalar Network1000.node150 	time_period 	1
scalar Network1000.node150 	number_of_messages 	2
scalar Network1000.node150 	discovery_latency 	6492
scalar Network1000.node150 	number_of_desired_resources 	20
scalar Network1000.node150 	query_homogenity_rate 	33.333333333333
scalar Network1000.node150 	qrecord_time 	11230
scalar Network1000.node150 	discovery_resolution_rate 	0
scalar Network1000.node610 	rate_of_requesters 	1
scalar Network1000.node610 	number_of_resources 	55000
scalar Network1000.node610 	time_period 	1
scalar Network1000.node610 	number_of_messages 	2
scalar Network1000.node610 	discovery_latency 	6504
scalar Network1000.node610 	number_of_desired_resources 	20
scalar Network1000.node610 	query_homogenity_rate 	33.333333333333
scalar Network1000.node610 	qrecord_time 	11230
scalar Network1000.node610 	discovery_resolution_rate 	0
scalar Network1000.node20 	rate_of_requesters 	1
scalar Network1000.node20 	number_of_resources 	55000
scalar Network1000.node20 	time_period 	1
scalar Network1000.node20 	number_of_messages 	8
scalar Network1000.node20 	discovery_latency 	6468
scalar Network1000.node20 	number_of_desired_resources 	20
scalar Network1000.node20 	query_homogenity_rate 	33.333333333333
scalar Network1000.node20 	qrecord_time 	11242
scalar Network1000.node20 	discovery_resolution_rate 	33.333333333333
scalar Network1000.node130 	rate_of_requesters 	1
scalar Network1000.node130 	number_of_resources 	55000
scalar Network1000.node130 	time_period 	1
scalar Network1000.node130 	number_of_messages 	8
scalar Network1000.node130 	discovery_latency 	6510
scalar Network1000.node130 	number_of_desired_resources 	20
scalar Network1000.node130 	query_homogenity_rate 	33.333333333333
scalar Network1000.node130 	qrecord_time 	11242
scalar Network1000.node130 	discovery_resolution_rate 	33.333333333333
scalar Network1000.node680 	rate_of_requesters 	1
scalar Network1000.node680 	number_of_resources 	55000
scalar Network1000.node680 	time_period 	1
scalar Network1000.node680 	number_of_messages 	21
scalar Network1000.node680 	discovery_latency 	6552
scalar Network1000.node680 	number_of_desired_resources 	20
scalar Network1000.node680 	query_homogenity_rate 	33.333333333333
scalar Network1000.node680 	qrecord_time 	11242
scalar Network1000.node680 	discovery_resolution_rate 	33.333333333333
scalar Network1000.node620 	rate_of_requesters 	1
scalar Network1000.node620 	number_of_resources 	55000
scalar Network1000.node620 	time_period 	1
scalar Network1000.node620 	number_of_messages 	2
scalar Network1000.node620 	discovery_latency 	6504
scalar Network1000.node620 	number_of_desired_resources 	20
scalar Network1000.node620 	query_homogenity_rate 	33.333333333333
scalar Network1000.node620 	qrecord_time 	11242
scalar Network1000.node620 	discovery_resolution_rate 	0
scalar Network1000.node880 	rate_of_requesters 	1
scalar Network1000.node880 	number_of_resources 	55000
scalar Network1000.node880 	time_period 	1
scalar Network1000.node880 	number_of_messages 	41
scalar Network1000.node880 	discovery_latency 	6552
scalar Network1000.node880 	number_of_desired_resources 	20
scalar Network1000.node880 	query_homogenity_rate 	33.333333333333
scalar Network1000.node880 	qrecord_time 	11242
scalar Network1000.node880 	discovery_resolution_rate 	66.666666666667
scalar Network1000.node140 	rate_of_requesters 	1
scalar Network1000.node140 	number_of_resources 	55000
scalar Network1000.node140 	time_period 	1
scalar Network1000.node140 	number_of_messages 	7
scalar Network1000.node140 	discovery_latency 	6456
scalar Network1000.node140 	number_of_desired_resources 	20
scalar Network1000.node140 	query_homogenity_rate 	33.333333333333
scalar Network1000.node140 	qrecord_time 	11248
scalar Network1000.node140 	discovery_resolution_rate 	33.333333333333
scalar Network1000.node920 	rate_of_requesters 	1
scalar Network1000.node920 	number_of_resources 	55000
scalar Network1000.node920 	time_period 	1
scalar Network1000.node920 	number_of_messages 	20
scalar Network1000.node920 	discovery_latency 	6516
scalar Network1000.node920 	number_of_desired_resources 	20
scalar Network1000.node920 	query_homogenity_rate 	33.333333333333
scalar Network1000.node920 	qrecord_time 	11248
scalar Network1000.node920 	discovery_resolution_rate 	66.666666666667
scalar Network1000.node60 	rate_of_requesters 	1
scalar Network1000.node60 	number_of_resources 	55000
scalar Network1000.node60 	time_period 	1
scalar Network1000.node60 	number_of_messages 	6
scalar Network1000.node60 	discovery_latency 	6456
scalar Network1000.node60 	number_of_desired_resources 	20
scalar Network1000.node60 	query_homogenity_rate 	33.333333333333
scalar Network1000.node60 	qrecord_time 	11248
scalar Network1000.node60 	discovery_resolution_rate 	33.333333333333
scalar Network1000.node550 	rate_of_requesters 	1
scalar Network1000.node550 	number_of_resources 	55000
scalar Network1000.node550 	time_period 	1
scalar Network1000.node550 	number_of_messages 	2
scalar Network1000.node550 	discovery_latency 	6468
scalar Network1000.node550 	number_of_desired_resources 	20
scalar Network1000.node550 	query_homogenity_rate 	33.333333333333
scalar Network1000.node550 	qrecord_time 	11254
scalar Network1000.node550 	discovery_resolution_rate 	0
scalar Network1000.node490 	rate_of_requesters 	1
scalar Network1000.node490 	number_of_resources 	55000
scalar Network1000.node490 	time_period 	1
scalar Network1000.node490 	number_of_messages 	0
scalar Network1000.node490 	discovery_latency 	6588
scalar Network1000.node490 	number_of_desired_resources 	20
scalar Network1000.node490 	query_homogenity_rate 	33.333333333333
scalar Network1000.node490 	qrecord_time 	11260
scalar Network1000.node490 	discovery_resolution_rate 	0
scalar Network1000.node120 	rate_of_requesters 	1
scalar Network1000.node120 	number_of_resources 	55000
scalar Network1000.node120 	time_period 	1
scalar Network1000.node120 	number_of_messages 	300
scalar Network1000.node120 	discovery_latency 	6492
scalar Network1000.node120 	number_of_desired_resources 	20
scalar Network1000.node120 	query_homogenity_rate 	33.333333333333
scalar Network1000.node120 	qrecord_time 	11260
scalar Network1000.node120 	discovery_resolution_rate 	50
scalar Network1000.node700 	rate_of_requesters 	1
scalar Network1000.node700 	number_of_resources 	55000
scalar Network1000.node700 	time_period 	1
scalar Network1000.node700 	number_of_messages 	2
scalar Network1000.node700 	discovery_latency 	6552
scalar Network1000.node700 	number_of_desired_resources 	20
scalar Network1000.node700 	query_homogenity_rate 	33.333333333333
scalar Network1000.node700 	qrecord_time 	11266
scalar Network1000.node700 	discovery_resolution_rate 	0
scalar Network1000.node870 	rate_of_requesters 	1
scalar Network1000.node870 	number_of_resources 	55000
scalar Network1000.node870 	time_period 	1
scalar Network1000.node870 	number_of_messages 	21
scalar Network1000.node870 	discovery_latency 	6516
scalar Network1000.node870 	number_of_desired_resources 	20
scalar Network1000.node870 	query_homogenity_rate 	33.333333333333
scalar Network1000.node870 	qrecord_time 	11266
scalar Network1000.node870 	discovery_resolution_rate 	33.333333333333
scalar Network1000.node770 	rate_of_requesters 	1
scalar Network1000.node770 	number_of_resources 	55000
scalar Network1000.node770 	time_period 	1
scalar Network1000.node770 	number_of_messages 	6
scalar Network1000.node770 	discovery_latency 	6546
scalar Network1000.node770 	number_of_desired_resources 	20
scalar Network1000.node770 	query_homogenity_rate 	33.333333333333
scalar Network1000.node770 	qrecord_time 	11266
scalar Network1000.node770 	discovery_resolution_rate 	33.333333333333
scalar Network1000.node780 	rate_of_requesters 	1
scalar Network1000.node780 	number_of_resources 	55000
scalar Network1000.node780 	time_period 	1
scalar Network1000.node780 	number_of_messages 	2
scalar Network1000.node780 	discovery_latency 	6420
scalar Network1000.node780 	number_of_desired_resources 	20
scalar Network1000.node780 	query_homogenity_rate 	33.333333333333
scalar Network1000.node780 	qrecord_time 	11272
scalar Network1000.node780 	discovery_resolution_rate 	0
scalar Network1000.node900 	rate_of_requesters 	1
scalar Network1000.node900 	number_of_resources 	55000
scalar Network1000.node900 	time_period 	1
scalar Network1000.node900 	number_of_messages 	20
scalar Network1000.node900 	discovery_latency 	6564
scalar Network1000.node900 	number_of_desired_resources 	20
scalar Network1000.node900 	query_homogenity_rate 	33.333333333333
scalar Network1000.node900 	qrecord_time 	11278
scalar Network1000.node900 	discovery_resolution_rate 	66.666666666667
scalar Network1000.node510 	rate_of_requesters 	1
scalar Network1000.node510 	number_of_resources 	55000
scalar Network1000.node510 	time_period 	1
scalar Network1000.node510 	number_of_messages 	2
scalar Network1000.node510 	discovery_latency 	6432
scalar Network1000.node510 	number_of_desired_resources 	20
scalar Network1000.node510 	query_homogenity_rate 	33.333333333333
scalar Network1000.node510 	qrecord_time 	11284
scalar Network1000.node510 	discovery_resolution_rate 	0
scalar Network1000.node360 	rate_of_requesters 	1
scalar Network1000.node360 	number_of_resources 	55000
scalar Network1000.node360 	time_period 	1
scalar Network1000.node360 	number_of_messages 	9
scalar Network1000.node360 	discovery_latency 	6552
scalar Network1000.node360 	number_of_desired_resources 	20
scalar Network1000.node360 	query_homogenity_rate 	33.333333333333
scalar Network1000.node360 	qrecord_time 	11284
scalar Network1000.node360 	discovery_resolution_rate 	33.333333333333
scalar Network1000.node380 	rate_of_requesters 	1
scalar Network1000.node380 	number_of_resources 	55000
scalar Network1000.node380 	time_period 	1
scalar Network1000.node380 	number_of_messages 	2
scalar Network1000.node380 	discovery_latency 	6576
scalar Network1000.node380 	number_of_desired_resources 	20
scalar Network1000.node380 	query_homogenity_rate 	33.333333333333
scalar Network1000.node380 	qrecord_time 	11284
scalar Network1000.node380 	discovery_resolution_rate 	0
scalar Network1000.node910 	rate_of_requesters 	1
scalar Network1000.node910 	number_of_resources 	55000
scalar Network1000.node910 	time_period 	1
scalar Network1000.node910 	number_of_messages 	16
scalar Network1000.node910 	discovery_latency 	6516
scalar Network1000.node910 	number_of_desired_resources 	20
scalar Network1000.node910 	query_homogenity_rate 	33.333333333333
scalar Network1000.node910 	qrecord_time 	11290
scalar Network1000.node910 	discovery_resolution_rate 	33.333333333333
scalar Network1000.node40 	rate_of_requesters 	1
scalar Network1000.node40 	number_of_resources 	55000
scalar Network1000.node40 	time_period 	1
scalar Network1000.node40 	number_of_messages 	18
scalar Network1000.node40 	discovery_latency 	6576
scalar Network1000.node40 	number_of_desired_resources 	20
scalar Network1000.node40 	query_homogenity_rate 	33.333333333333
scalar Network1000.node40 	qrecord_time 	11296
scalar Network1000.node40 	discovery_resolution_rate 	66.666666666667
scalar Network1000.node270 	rate_of_requesters 	1
scalar Network1000.node270 	number_of_resources 	55000
scalar Network1000.node270 	time_period 	1
scalar Network1000.node270 	number_of_messages 	2
scalar Network1000.node270 	discovery_latency 	6480
scalar Network1000.node270 	number_of_desired_resources 	20
scalar Network1000.node270 	query_homogenity_rate 	33.333333333333
scalar Network1000.node270 	qrecord_time 	11302
scalar Network1000.node270 	discovery_resolution_rate 	0
scalar Network1000.node460 	rate_of_requesters 	1
scalar Network1000.node460 	number_of_resources 	55000
scalar Network1000.node460 	time_period 	1
scalar Network1000.node460 	number_of_messages 	2
scalar Network1000.node460 	discovery_latency 	6468
scalar Network1000.node460 	number_of_desired_resources 	20
scalar Network1000.node460 	query_homogenity_rate 	33.333333333333
scalar Network1000.node460 	qrecord_time 	11302
scalar Network1000.node460 	discovery_resolution_rate 	0
scalar Network1000.node800 	rate_of_requesters 	1
scalar Network1000.node800 	number_of_resources 	55000
scalar Network1000.node800 	time_period 	1
scalar Network1000.node800 	number_of_messages 	2
scalar Network1000.node800 	discovery_latency 	6534
scalar Network1000.node800 	number_of_desired_resources 	20
scalar Network1000.node800 	query_homogenity_rate 	33.333333333333
scalar Network1000.node800 	qrecord_time 	11302
scalar Network1000.node800 	discovery_resolution_rate 	0
scalar Network1000.node300 	rate_of_requesters 	1
scalar Network1000.node300 	number_of_resources 	55000
scalar Network1000.node300 	time_period 	1
scalar Network1000.node300 	number_of_messages 	2
scalar Network1000.node300 	discovery_latency 	6546
scalar Network1000.node300 	number_of_desired_resources 	20
scalar Network1000.node300 	query_homogenity_rate 	33.333333333333
scalar Network1000.node300 	qrecord_time 	11314
scalar Network1000.node300 	discovery_resolution_rate 	0
scalar Network1000.node500 	rate_of_requesters 	1
scalar Network1000.node500 	number_of_resources 	55000
scalar Network1000.node500 	time_period 	2
scalar Network1000.node500 	number_of_messages 	15
scalar Network1000.node500 	discovery_latency 	6510
scalar Network1000.node500 	number_of_desired_resources 	20
scalar Network1000.node500 	query_homogenity_rate 	33.333333333333
scalar Network1000.node500 	qrecord_time 	11318.395263096
scalar Network1000.node500 	discovery_resolution_rate 	33.333333333333
scalar Network1000.node200 	rate_of_requesters 	1
scalar Network1000.node200 	number_of_resources 	55000
scalar Network1000.node200 	time_period 	1
scalar Network1000.node200 	number_of_messages 	2
scalar Network1000.node200 	discovery_latency 	6480
scalar Network1000.node200 	number_of_desired_resources 	20
scalar Network1000.node200 	query_homogenity_rate 	33.333333333333
scalar Network1000.node200 	qrecord_time 	11320
scalar Network1000.node200 	discovery_resolution_rate 	0
scalar Network1000.node50 	rate_of_requesters 	1
scalar Network1000.node50 	number_of_resources 	55000
scalar Network1000.node50 	time_period 	1
scalar Network1000.node50 	number_of_messages 	11
scalar Network1000.node50 	discovery_latency 	6588
scalar Network1000.node50 	number_of_desired_resources 	20
scalar Network1000.node50 	query_homogenity_rate 	33.333333333333
scalar Network1000.node50 	qrecord_time 	11326
scalar Network1000.node50 	discovery_resolution_rate 	66.666666666667
scalar Network1000.node990 	rate_of_requesters 	1
scalar Network1000.node990 	number_of_resources 	55000
scalar Network1000.node990 	time_period 	1
scalar Network1000.node990 	number_of_messages 	2
scalar Network1000.node990 	discovery_latency 	6552
scalar Network1000.node990 	number_of_desired_resources 	20
scalar Network1000.node990 	query_homogenity_rate 	33.333333333333
scalar Network1000.node990 	qrecord_time 	11326
scalar Network1000.node990 	discovery_resolution_rate 	0
scalar Network1000.node660 	rate_of_requesters 	1
scalar Network1000.node660 	number_of_resources 	55000
scalar Network1000.node660 	time_period 	1
scalar Network1000.node660 	number_of_messages 	10
scalar Network1000.node660 	discovery_latency 	6576
scalar Network1000.node660 	number_of_desired_resources 	20
scalar Network1000.node660 	query_homogenity_rate 	33.333333333333
scalar Network1000.node660 	qrecord_time 	11326
scalar Network1000.node660 	discovery_resolution_rate 	33.333333333333
scalar Network1000.node330 	rate_of_requesters 	1
scalar Network1000.node330 	number_of_resources 	55000
scalar Network1000.node330 	time_period 	1
scalar Network1000.node330 	number_of_messages 	2
scalar Network1000.node330 	discovery_latency 	6600
scalar Network1000.node330 	number_of_desired_resources 	20
scalar Network1000.node330 	query_homogenity_rate 	33.333333333333
scalar Network1000.node330 	qrecord_time 	11332
scalar Network1000.node330 	discovery_resolution_rate 	0
scalar Network1000.node790 	rate_of_requesters 	1
scalar Network1000.node790 	number_of_resources 	55000
scalar Network1000.node790 	time_period 	2
scalar Network1000.node790 	number_of_messages 	2
scalar Network1000.node790 	discovery_latency 	6468
scalar Network1000.node790 	number_of_desired_resources 	20
scalar Network1000.node790 	query_homogenity_rate 	33.333333333333
scalar Network1000.node790 	qrecord_time 	11333.829123598
scalar Network1000.node790 	discovery_resolution_rate 	0
scalar Network1000.node720 	rate_of_requesters 	1
scalar Network1000.node720 	number_of_resources 	55000
scalar Network1000.node720 	time_period 	2
scalar Network1000.node720 	number_of_messages 	2
scalar Network1000.node720 	discovery_latency 	6618
scalar Network1000.node720 	number_of_desired_resources 	20
scalar Network1000.node720 	query_homogenity_rate 	33.333333333333
scalar Network1000.node720 	qrecord_time 	11337.223455869
scalar Network1000.node720 	discovery_resolution_rate 	0
scalar Network1000.node500 	rate_of_requesters 	1
scalar Network1000.node500 	number_of_resources 	55000
scalar Network1000.node500 	time_period 	1
scalar Network1000.node500 	number_of_messages 	4
scalar Network1000.node500 	discovery_latency 	6588
scalar Network1000.node500 	number_of_desired_resources 	20
scalar Network1000.node500 	query_homogenity_rate 	33.333333333333
scalar Network1000.node500 	qrecord_time 	11338
scalar Network1000.node500 	discovery_resolution_rate 	33.333333333333
scalar Network1000.node240 	rate_of_requesters 	1
scalar Network1000.node240 	number_of_resources 	55000
scalar Network1000.node240 	time_period 	1
scalar Network1000.node240 	number_of_messages 	296
scalar Network1000.node240 	discovery_latency 	6648
scalar Network1000.node240 	number_of_desired_resources 	20
scalar Network1000.node240 	query_homogenity_rate 	33.333333333333
scalar Network1000.node240 	qrecord_time 	11338
scalar Network1000.node240 	discovery_resolution_rate 	16.666666666667
scalar Network1000.node180 	rate_of_requesters 	1
scalar Network1000.node180 	number_of_resources 	55000
scalar Network1000.node180 	time_period 	1
scalar Network1000.node180 	number_of_messages 	2
scalar Network1000.node180 	discovery_latency 	6612
scalar Network1000.node180 	number_of_desired_resources 	20
scalar Network1000.node180 	query_homogenity_rate 	33.333333333333
scalar Network1000.node180 	qrecord_time 	11350
scalar Network1000.node180 	discovery_resolution_rate 	0
scalar Network1000.node960 	rate_of_requesters 	1
scalar Network1000.node960 	number_of_resources 	55000
scalar Network1000.node960 	time_period 	1
scalar Network1000.node960 	number_of_messages 	12
scalar Network1000.node960 	discovery_latency 	6582
scalar Network1000.node960 	number_of_desired_resources 	20
scalar Network1000.node960 	query_homogenity_rate 	33.333333333333
scalar Network1000.node960 	qrecord_time 	11350
scalar Network1000.node960 	discovery_resolution_rate 	33.333333333333
scalar Network1000.node20 	rate_of_requesters 	1
scalar Network1000.node20 	number_of_resources 	55000
scalar Network1000.node20 	time_period 	3
scalar Network1000.node20 	number_of_messages 	2
scalar Network1000.node20 	discovery_latency 	6450
scalar Network1000.node20 	number_of_desired_resources 	20
scalar Network1000.node20 	query_homogenity_rate 	33.333333333333
scalar Network1000.node20 	qrecord_time 	11358.06959878
scalar Network1000.node20 	discovery_resolution_rate 	0
scalar Network1000.node20 	rate_of_requesters 	1
scalar Network1000.node20 	number_of_resources 	55000
scalar Network1000.node20 	time_period 	2
scalar Network1000.node20 	number_of_messages 	7
scalar Network1000.node20 	discovery_latency 	6492
scalar Network1000.node20 	number_of_desired_resources 	20
scalar Network1000.node20 	query_homogenity_rate 	33.333333333333
scalar Network1000.node20 	qrecord_time 	11367.420056901
scalar Network1000.node20 	discovery_resolution_rate 	33.333333333333
scalar Network1000.node570 	rate_of_requesters 	1
scalar Network1000.node570 	number_of_resources 	55000
scalar Network1000.node570 	time_period 	1
scalar Network1000.node570 	number_of_messages 	2
scalar Network1000.node570 	discovery_latency 	6600
scalar Network1000.node570 	number_of_desired_resources 	20
scalar Network1000.node570 	query_homogenity_rate 	33.333333333333
scalar Network1000.node570 	qrecord_time 	11374
scalar Network1000.node570 	discovery_resolution_rate 	0
scalar Network1000.node400 	rate_of_requesters 	1
scalar Network1000.node400 	number_of_resources 	55000
scalar Network1000.node400 	time_period 	1
scalar Network1000.node400 	number_of_messages 	7
scalar Network1000.node400 	discovery_latency 	6708
scalar Network1000.node400 	number_of_desired_resources 	20
scalar Network1000.node400 	query_homogenity_rate 	33.333333333333
scalar Network1000.node400 	qrecord_time 	11374
scalar Network1000.node400 	discovery_resolution_rate 	33.333333333333
scalar Network1000.node200 	rate_of_requesters 	1
scalar Network1000.node200 	number_of_resources 	55000
scalar Network1000.node200 	time_period 	2
scalar Network1000.node200 	number_of_messages 	2
scalar Network1000.node200 	discovery_latency 	6552
scalar Network1000.node200 	number_of_desired_resources 	20
scalar Network1000.node200 	query_homogenity_rate 	33.333333333333
scalar Network1000.node200 	qrecord_time 	11397.421013135
scalar Network1000.node200 	discovery_resolution_rate 	0
scalar Network1000.node720 	rate_of_requesters 	1
scalar Network1000.node720 	number_of_resources 	55000
scalar Network1000.node720 	time_period 	3
scalar Network1000.node720 	number_of_messages 	2
scalar Network1000.node720 	discovery_latency 	6624
scalar Network1000.node720 	number_of_desired_resources 	20
scalar Network1000.node720 	query_homogenity_rate 	33.333333333333
scalar Network1000.node720 	qrecord_time 	11423.648648904
scalar Network1000.node720 	discovery_resolution_rate 	0
scalar Network1000.node750 	rate_of_requesters 	1
scalar Network1000.node750 	number_of_resources 	55000
scalar Network1000.node750 	time_period 	2
scalar Network1000.node750 	number_of_messages 	0
scalar Network1000.node750 	discovery_latency 	6648
scalar Network1000.node750 	number_of_desired_resources 	20
scalar Network1000.node750 	query_homogenity_rate 	33.333333333333
scalar Network1000.node750 	qrecord_time 	11534.886789891
scalar Network1000.node750 	discovery_resolution_rate 	0
scalar Network1000.node980 	rate_of_requesters 	1
scalar Network1000.node980 	number_of_resources 	55000
scalar Network1000.node980 	time_period 	1
scalar Network1000.node980 	number_of_messages 	2
scalar Network1000.node980 	discovery_latency 	6654
scalar Network1000.node980 	number_of_desired_resources 	20
scalar Network1000.node980 	query_homogenity_rate 	33.333333333333
scalar Network1000.node980 	qrecord_time 	11548
scalar Network1000.node980 	discovery_resolution_rate 	0
scalar Network1000.node170 	rate_of_requesters 	1
scalar Network1000.node170 	number_of_resources 	55000
scalar Network1000.node170 	time_period 	2
scalar Network1000.node170 	number_of_messages 	2
scalar Network1000.node170 	discovery_latency 	6462
scalar Network1000.node170 	number_of_desired_resources 	20
scalar Network1000.node170 	query_homogenity_rate 	33.333333333333
scalar Network1000.node170 	qrecord_time 	11571.165374653
scalar Network1000.node170 	discovery_resolution_rate 	0
scalar Network1000.node460 	rate_of_requesters 	1
scalar Network1000.node460 	number_of_resources 	55000
scalar Network1000.node460 	time_period 	2
scalar Network1000.node460 	number_of_messages 	2
scalar Network1000.node460 	discovery_latency 	6588
scalar Network1000.node460 	number_of_desired_resources 	20
scalar Network1000.node460 	query_homogenity_rate 	33.333333333333
scalar Network1000.node460 	qrecord_time 	11578.705818665
scalar Network1000.node460 	discovery_resolution_rate 	0
scalar Network1000.node420 	rate_of_requesters 	1
scalar Network1000.node420 	number_of_resources 	55000
scalar Network1000.node420 	time_period 	2
scalar Network1000.node420 	number_of_messages 	2
scalar Network1000.node420 	discovery_latency 	6456
scalar Network1000.node420 	number_of_desired_resources 	20
scalar Network1000.node420 	query_homogenity_rate 	33.333333333333
scalar Network1000.node420 	qrecord_time 	11598.223689273
scalar Network1000.node420 	discovery_resolution_rate 	0
scalar Network1000.node500 	rate_of_requesters 	1
scalar Network1000.node500 	number_of_resources 	55000
scalar Network1000.node500 	time_period 	3
scalar Network1000.node500 	number_of_messages 	2
scalar Network1000.node500 	discovery_latency 	6516
scalar Network1000.node500 	number_of_desired_resources 	20
scalar Network1000.node500 	query_homogenity_rate 	33.333333333333
scalar Network1000.node500 	qrecord_time 	11659.491223162
scalar Network1000.node500 	discovery_resolution_rate 	0
scalar Network1000.node150 	rate_of_requesters 	1
scalar Network1000.node150 	number_of_resources 	55000
scalar Network1000.node150 	time_period 	2
scalar Network1000.node150 	number_of_messages 	2
scalar Network1000.node150 	discovery_latency 	6534
scalar Network1000.node150 	number_of_desired_resources 	20
scalar Network1000.node150 	query_homogenity_rate 	33.333333333333
scalar Network1000.node150 	qrecord_time 	11691.237946764
scalar Network1000.node150 	discovery_resolution_rate 	0
scalar Network1000.node60 	rate_of_requesters 	1
scalar Network1000.node60 	number_of_resources 	55000
scalar Network1000.node60 	time_period 	2
scalar Network1000.node60 	number_of_messages 	2
scalar Network1000.node60 	discovery_latency 	6408
scalar Network1000.node60 	number_of_desired_resources 	20
scalar Network1000.node60 	query_homogenity_rate 	33.333333333333
scalar Network1000.node60 	qrecord_time 	11712.313028136
scalar Network1000.node60 	discovery_resolution_rate 	0
scalar Network1000.node140 	rate_of_requesters 	1
scalar Network1000.node140 	number_of_resources 	55000
scalar Network1000.node140 	time_period 	2
scalar Network1000.node140 	number_of_messages 	2
scalar Network1000.node140 	discovery_latency 	6360
scalar Network1000.node140 	number_of_desired_resources 	20
scalar Network1000.node140 	query_homogenity_rate 	33.333333333333
scalar Network1000.node140 	qrecord_time 	11719.698421439
scalar Network1000.node140 	discovery_resolution_rate 	0
scalar Network1000.node790 	rate_of_requesters 	1
scalar Network1000.node790 	number_of_resources 	55000
scalar Network1000.node790 	time_period 	3
scalar Network1000.node790 	number_of_messages 	2
scalar Network1000.node790 	discovery_latency 	6684
scalar Network1000.node790 	number_of_desired_resources 	20
scalar Network1000.node790 	query_homogenity_rate 	33.333333333333
scalar Network1000.node790 	qrecord_time 	11721.272534747
scalar Network1000.node790 	discovery_resolution_rate 	0
scalar Network1000.node420 	rate_of_requesters 	1
scalar Network1000.node420 	number_of_resources 	55000
scalar Network1000.node420 	time_period 	3
scalar Network1000.node420 	number_of_messages 	2
scalar Network1000.node420 	discovery_latency 	6564
scalar Network1000.node420 	number_of_desired_resources 	20
scalar Network1000.node420 	query_homogenity_rate 	33.333333333333
scalar Network1000.node420 	qrecord_time 	11837.498221783
scalar Network1000.node420 	discovery_resolution_rate 	0
scalar Network1000.node880 	rate_of_requesters 	1
scalar Network1000.node880 	number_of_resources 	55000
scalar Network1000.node880 	time_period 	2
scalar Network1000.node880 	number_of_messages 	2
scalar Network1000.node880 	discovery_latency 	6360
scalar Network1000.node880 	number_of_desired_resources 	20
scalar Network1000.node880 	query_homogenity_rate 	33.333333333333
scalar Network1000.node880 	qrecord_time 	11861.364920202
scalar Network1000.node880 	discovery_resolution_rate 	0
scalar Network1000.node970 	rate_of_requesters 	1
scalar Network1000.node970 	number_of_resources 	55000
scalar Network1000.node970 	time_period 	2
scalar Network1000.node970 	number_of_messages 	2
scalar Network1000.node970 	discovery_latency 	6564
scalar Network1000.node970 	number_of_desired_resources 	20
scalar Network1000.node970 	query_homogenity_rate 	33.333333333333
scalar Network1000.node970 	qrecord_time 	11956.397417179
scalar Network1000.node970 	discovery_resolution_rate 	0
scalar Network1000.node830 	rate_of_requesters 	1
scalar Network1000.node830 	number_of_resources 	55000
scalar Network1000.node830 	time_period 	2
scalar Network1000.node830 	number_of_messages 	2
scalar Network1000.node830 	discovery_latency 	6468
scalar Network1000.node830 	number_of_desired_resources 	20
scalar Network1000.node830 	query_homogenity_rate 	33.333333333333
scalar Network1000.node830 	qrecord_time 	11967.553122511
scalar Network1000.node830 	discovery_resolution_rate 	0
scalar Network1000.node460 	rate_of_requesters 	1
scalar Network1000.node460 	number_of_resources 	55000
scalar Network1000.node460 	time_period 	3
scalar Network1000.node460 	number_of_messages 	2
scalar Network1000.node460 	discovery_latency 	6486
scalar Network1000.node460 	number_of_desired_resources 	20
scalar Network1000.node460 	query_homogenity_rate 	33.333333333333
scalar Network1000.node460 	qrecord_time 	11995.682968912
scalar Network1000.node460 	discovery_resolution_rate 	0
scalar Network1000.node180 	rate_of_requesters 	1
scalar Network1000.node180 	number_of_resources 	55000
scalar Network1000.node180 	time_period 	2
scalar Network1000.node180 	number_of_messages 	2
scalar Network1000.node180 	discovery_latency 	6690
scalar Network1000.node180 	number_of_desired_resources 	20
scalar Network1000.node180 	query_homogenity_rate 	33.333333333333
scalar Network1000.node180 	qrecord_time 	11999.459209159
scalar Network1000.node180 	discovery_resolution_rate 	0
scalar Network1000.node270 	rate_of_requesters 	1
scalar Network1000.node270 	number_of_resources 	55000
scalar Network1000.node270 	time_period 	2
scalar Network1000.node270 	number_of_messages 	2
scalar Network1000.node270 	discovery_latency 	6456
scalar Network1000.node270 	number_of_desired_resources 	20
scalar Network1000.node270 	query_homogenity_rate 	33.333333333333
scalar Network1000.node270 	qrecord_time 	12042.660548207
scalar Network1000.node270 	discovery_resolution_rate 	0
scalar Network1000.node0 	rate_of_requesters 	1
scalar Network1000.node0 	number_of_resources 	55000
scalar Network1000.node0 	time_period 	2
scalar Network1000.node0 	number_of_messages 	0
scalar Network1000.node0 	discovery_latency 	6504
scalar Network1000.node0 	number_of_desired_resources 	20
scalar Network1000.node0 	query_homogenity_rate 	33.333333333333
scalar Network1000.node0 	qrecord_time 	12134.331364326
scalar Network1000.node0 	discovery_resolution_rate 	0
scalar Network1000.node680 	rate_of_requesters 	1
scalar Network1000.node680 	number_of_resources 	55000
scalar Network1000.node680 	time_period 	2
scalar Network1000.node680 	number_of_messages 	2
scalar Network1000.node680 	discovery_latency 	6492
scalar Network1000.node680 	number_of_desired_resources 	20
scalar Network1000.node680 	query_homogenity_rate 	33.333333333333
scalar Network1000.node680 	qrecord_time 	12184.113003404
scalar Network1000.node680 	discovery_resolution_rate 	0
scalar Network1000.node970 	rate_of_requesters 	1
scalar Network1000.node970 	number_of_resources 	55000
scalar Network1000.node970 	time_period 	3
scalar Network1000.node970 	number_of_messages 	2
scalar Network1000.node970 	discovery_latency 	6534
scalar Network1000.node970 	number_of_desired_resources 	20
scalar Network1000.node970 	query_homogenity_rate 	33.333333333333
scalar Network1000.node970 	qrecord_time 	12232.958375368
scalar Network1000.node970 	discovery_resolution_rate 	0
scalar Network1000.node100 	rate_of_requesters 	1
scalar Network1000.node100 	number_of_resources 	55000
scalar Network1000.node100 	time_period 	2
scalar Network1000.node100 	number_of_messages 	2
scalar Network1000.node100 	discovery_latency 	6528
scalar Network1000.node100 	number_of_desired_resources 	20
scalar Network1000.node100 	query_homogenity_rate 	33.333333333333
scalar Network1000.node100 	qrecord_time 	12244.328496097
scalar Network1000.node100 	discovery_resolution_rate 	0
scalar Network1000.node250 	rate_of_requesters 	1
scalar Network1000.node250 	number_of_resources 	55000
scalar Network1000.node250 	time_period 	2
scalar Network1000.node250 	number_of_messages 	2
scalar Network1000.node250 	discovery_latency 	6420
scalar Network1000.node250 	number_of_desired_resources 	20
scalar Network1000.node250 	query_homogenity_rate 	33.333333333333
scalar Network1000.node250 	qrecord_time 	12255.879203831
scalar Network1000.node250 	discovery_resolution_rate 	0
scalar Network1000.node370 	rate_of_requesters 	1
scalar Network1000.node370 	number_of_resources 	55000
scalar Network1000.node370 	time_period 	2
scalar Network1000.node370 	number_of_messages 	2
scalar Network1000.node370 	discovery_latency 	6576
scalar Network1000.node370 	number_of_desired_resources 	20
scalar Network1000.node370 	query_homogenity_rate 	33.333333333333
scalar Network1000.node370 	qrecord_time 	12319.926745602
scalar Network1000.node370 	discovery_resolution_rate 	0
scalar Network1000.node570 	rate_of_requesters 	1
scalar Network1000.node570 	number_of_resources 	55000
scalar Network1000.node570 	time_period 	2
scalar Network1000.node570 	number_of_messages 	2
scalar Network1000.node570 	discovery_latency 	6390
scalar Network1000.node570 	number_of_desired_resources 	20
scalar Network1000.node570 	query_homogenity_rate 	33.333333333333
scalar Network1000.node570 	qrecord_time 	12361.684508862
scalar Network1000.node570 	discovery_resolution_rate 	0
scalar Network1000.node260 	rate_of_requesters 	1
scalar Network1000.node260 	number_of_resources 	55000
scalar Network1000.node260 	time_period 	2
scalar Network1000.node260 	number_of_messages 	2
scalar Network1000.node260 	discovery_latency 	6624
scalar Network1000.node260 	number_of_desired_resources 	20
scalar Network1000.node260 	query_homogenity_rate 	33.333333333333
scalar Network1000.node260 	qrecord_time 	12443.009663408
scalar Network1000.node260 	discovery_resolution_rate 	0
scalar Network1000.node520 	rate_of_requesters 	1
scalar Network1000.node520 	number_of_resources 	55000
scalar Network1000.node520 	time_period 	2
scalar Network1000.node520 	number_of_messages 	2
scalar Network1000.node520 	discovery_latency 	6444
scalar Network1000.node520 	number_of_desired_resources 	20
scalar Network1000.node520 	query_homogenity_rate 	33.333333333333
scalar Network1000.node520 	qrecord_time 	12522.818308111
scalar Network1000.node520 	discovery_resolution_rate 	0
scalar Network1000.node0 	rate_of_requesters 	1
scalar Network1000.node0 	number_of_resources 	55000
scalar Network1000.node0 	time_period 	3
scalar Network1000.node0 	number_of_messages 	0
scalar Network1000.node0 	discovery_latency 	6660
scalar Network1000.node0 	number_of_desired_resources 	20
scalar Network1000.node0 	query_homogenity_rate 	33.333333333333
scalar Network1000.node0 	qrecord_time 	12547.284226367
scalar Network1000.node0 	discovery_resolution_rate 	0
scalar Network1000.node770 	rate_of_requesters 	1
scalar Network1000.node770 	number_of_resources 	55000
scalar Network1000.node770 	time_period 	2
scalar Network1000.node770 	number_of_messages 	0
scalar Network1000.node770 	discovery_latency 	6324
scalar Network1000.node770 	number_of_desired_resources 	20
scalar Network1000.node770 	query_homogenity_rate 	33.333333333333
scalar Network1000.node770 	qrecord_time 	12576.343042677
scalar Network1000.node770 	discovery_resolution_rate 	0
scalar Network1000.node510 	rate_of_requesters 	1
scalar Network1000.node510 	number_of_resources 	55000
scalar Network1000.node510 	time_period 	2
scalar Network1000.node510 	number_of_messages 	2
scalar Network1000.node510 	discovery_latency 	6528
scalar Network1000.node510 	number_of_desired_resources 	20
scalar Network1000.node510 	query_homogenity_rate 	33.333333333333
scalar Network1000.node510 	qrecord_time 	12629.554703547
scalar Network1000.node510 	discovery_resolution_rate 	0
scalar Network1000.node600 	rate_of_requesters 	1
scalar Network1000.node600 	number_of_resources 	55000
scalar Network1000.node600 	time_period 	2
scalar Network1000.node600 	number_of_messages 	0
scalar Network1000.node600 	discovery_latency 	6522
scalar Network1000.node600 	number_of_desired_resources 	20
scalar Network1000.node600 	query_homogenity_rate 	33.333333333333
scalar Network1000.node600 	qrecord_time 	12681.24068787
scalar Network1000.node600 	discovery_resolution_rate 	0
scalar Network1000.node710 	rate_of_requesters 	1
scalar Network1000.node710 	number_of_resources 	55000
scalar Network1000.node710 	time_period 	2
scalar Network1000.node710 	number_of_messages 	2
scalar Network1000.node710 	discovery_latency 	6342
scalar Network1000.node710 	number_of_desired_resources 	20
scalar Network1000.node710 	query_homogenity_rate 	33.333333333333
scalar Network1000.node710 	qrecord_time 	12699.237918998
scalar Network1000.node710 	discovery_resolution_rate 	0
scalar Network1000.node920 	rate_of_requesters 	1
scalar Network1000.node920 	number_of_resources 	55000
scalar Network1000.node920 	time_period 	2
scalar Network1000.node920 	number_of_messages 	2
scalar Network1000.node920 	discovery_latency 	6492
scalar Network1000.node920 	number_of_desired_resources 	20
scalar Network1000.node920 	query_homogenity_rate 	33.333333333333
scalar Network1000.node920 	qrecord_time 	12725.620354079
scalar Network1000.node920 	discovery_resolution_rate 	0
scalar Network1000.node330 	rate_of_requesters 	1
scalar Network1000.node330 	number_of_resources 	55000
scalar Network1000.node330 	time_period 	2
scalar Network1000.node330 	number_of_messages 	2
scalar Network1000.node330 	discovery_latency 	6396
scalar Network1000.node330 	number_of_desired_resources 	20
scalar Network1000.node330 	query_homogenity_rate 	33.333333333333
scalar Network1000.node330 	qrecord_time 	12753.724564703
scalar Network1000.node330 	discovery_resolution_rate 	0
scalar Network1000.node280 	rate_of_requesters 	1
scalar Network1000.node280 	number_of_resources 	55000
scalar Network1000.node280 	time_period 	2
scalar Network1000.node280 	number_of_messages 	2
scalar Network1000.node280 	discovery_latency 	6474
scalar Network1000.node280 	number_of_desired_resources 	20
scalar Network1000.node280 	query_homogenity_rate 	33.333333333333
scalar Network1000.node280 	qrecord_time 	12943.704513803
scalar Network1000.node280 	discovery_resolution_rate 	0
scalar Network1000.node420 	rate_of_requesters 	1
scalar Network1000.node420 	number_of_resources 	55000
scalar Network1000.node420 	time_period 	4
scalar Network1000.node420 	number_of_messages 	2
scalar Network1000.node420 	discovery_latency 	6456
scalar Network1000.node420 	number_of_desired_resources 	20
scalar Network1000.node420 	query_homogenity_rate 	33.333333333333
scalar Network1000.node420 	qrecord_time 	12950.184891936
scalar Network1000.node420 	discovery_resolution_rate 	0
scalar Network1000.node190 	rate_of_requesters 	1
scalar Network1000.node190 	number_of_resources 	55000
scalar Network1000.node190 	time_period 	2
scalar Network1000.node190 	number_of_messages 	2
scalar Network1000.node190 	discovery_latency 	6384
scalar Network1000.node190 	number_of_desired_resources 	20
scalar Network1000.node190 	query_homogenity_rate 	33.333333333333
scalar Network1000.node190 	qrecord_time 	12989.815801425
scalar Network1000.node190 	discovery_resolution_rate 	0
scalar Network1000.node900 	rate_of_requesters 	1
scalar Network1000.node900 	number_of_resources 	55000
scalar Network1000.node900 	time_period 	2
scalar Network1000.node900 	number_of_messages 	2
scalar Network1000.node900 	discovery_latency 	6588
scalar Network1000.node900 	number_of_desired_resources 	20
scalar Network1000.node900 	query_homogenity_rate 	33.333333333333
scalar Network1000.node900 	qrecord_time 	12994.573915672
scalar Network1000.node900 	discovery_resolution_rate 	0
scalar Network1000.node490 	rate_of_requesters 	1
scalar Network1000.node490 	number_of_resources 	55000
scalar Network1000.node490 	time_period 	2
scalar Network1000.node490 	number_of_messages 	0
scalar Network1000.node490 	discovery_latency 	6258
scalar Network1000.node490 	number_of_desired_resources 	20
scalar Network1000.node490 	query_homogenity_rate 	33.333333333333
scalar Network1000.node490 	qrecord_time 	13099.842601986
scalar Network1000.node490 	discovery_resolution_rate 	0
scalar Network1000.node450 	rate_of_requesters 	1
scalar Network1000.node450 	number_of_resources 	55000
scalar Network1000.node450 	time_period 	2
scalar Network1000.node450 	number_of_messages 	2
scalar Network1000.node450 	discovery_latency 	6540
scalar Network1000.node450 	number_of_desired_resources 	20
scalar Network1000.node450 	query_homogenity_rate 	33.333333333333
scalar Network1000.node450 	qrecord_time 	13117.852015593
scalar Network1000.node450 	discovery_resolution_rate 	0
scalar Network1000.node620 	rate_of_requesters 	1
scalar Network1000.node620 	number_of_resources 	55000
scalar Network1000.node620 	time_period 	2
scalar Network1000.node620 	number_of_messages 	2
scalar Network1000.node620 	discovery_latency 	6582
scalar Network1000.node620 	number_of_desired_resources 	20
scalar Network1000.node620 	query_homogenity_rate 	33.333333333333
scalar Network1000.node620 	qrecord_time 	13121.938253099
scalar Network1000.node620 	discovery_resolution_rate 	0
scalar Network1000.node780 	rate_of_requesters 	1
scalar Network1000.node780 	number_of_resources 	55000
scalar Network1000.node780 	time_period 	2
scalar Network1000.node780 	number_of_messages 	2
scalar Network1000.node780 	discovery_latency 	6552
scalar Network1000.node780 	number_of_desired_resources 	20
scalar Network1000.node780 	query_homogenity_rate 	33.333333333333
scalar Network1000.node780 	qrecord_time 	13234.296953408
scalar Network1000.node780 	discovery_resolution_rate 	0
scalar Network1000.node150 	rate_of_requesters 	1
scalar Network1000.node150 	number_of_resources 	55000
scalar Network1000.node150 	time_period 	3
scalar Network1000.node150 	number_of_messages 	2
scalar Network1000.node150 	discovery_latency 	6426
scalar Network1000.node150 	number_of_desired_resources 	20
scalar Network1000.node150 	query_homogenity_rate 	33.333333333333
scalar Network1000.node150 	qrecord_time 	13255.430336799
scalar Network1000.node150 	discovery_resolution_rate 	0
scalar Network1000.node310 	rate_of_requesters 	1
scalar Network1000.node310 	number_of_resources 	55000
scalar Network1000.node310 	time_period 	2
scalar Network1000.node310 	number_of_messages 	2
scalar Network1000.node310 	discovery_latency 	6420
scalar Network1000.node310 	number_of_desired_resources 	20
scalar Network1000.node310 	query_homogenity_rate 	33.333333333333
scalar Network1000.node310 	qrecord_time 	13266.502931536
scalar Network1000.node310 	discovery_resolution_rate 	0
scalar Network1000.node260 	rate_of_requesters 	1
scalar Network1000.node260 	number_of_resources 	55000
scalar Network1000.node260 	time_period 	3
scalar Network1000.node260 	number_of_messages 	2
scalar Network1000.node260 	discovery_latency 	6636
scalar Network1000.node260 	number_of_desired_resources 	20
scalar Network1000.node260 	query_homogenity_rate 	33.333333333333
scalar Network1000.node260 	qrecord_time 	13305.878372354
scalar Network1000.node260 	discovery_resolution_rate 	0
scalar Network1000.node30 	rate_of_requesters 	1
scalar Network1000.node30 	number_of_resources 	55000
scalar Network1000.node30 	time_period 	2
scalar Network1000.node30 	number_of_messages 	2
scalar Network1000.node30 	discovery_latency 	6516
scalar Network1000.node30 	number_of_desired_resources 	20
scalar Network1000.node30 	query_homogenity_rate 	33.333333333333
scalar Network1000.node30 	qrecord_time 	13341.187846736
scalar Network1000.node30 	discovery_resolution_rate 	0
scalar Network1000.node70 	rate_of_requesters 	1
scalar Network1000.node70 	number_of_resources 	55000
scalar Network1000.node70 	time_period 	3
scalar Network1000.node70 	number_of_messages 	2
scalar Network1000.node70 	discovery_latency 	6600
scalar Network1000.node70 	number_of_desired_resources 	20
scalar Network1000.node70 	query_homogenity_rate 	33.333333333333
scalar Network1000.node70 	qrecord_time 	13372.862547337
scalar Network1000.node70 	discovery_resolution_rate 	0
scalar Network1000.node80 	rate_of_requesters 	1
scalar Network1000.node80 	number_of_resources 	55000
scalar Network1000.node80 	time_period 	2
scalar Network1000.node80 	number_of_messages 	2
scalar Network1000.node80 	discovery_latency 	6438
scalar Network1000.node80 	number_of_desired_resources 	20
scalar Network1000.node80 	query_homogenity_rate 	33.333333333333
scalar Network1000.node80 	qrecord_time 	13390.918847757
scalar Network1000.node80 	discovery_resolution_rate 	0
scalar Network1000.node310 	rate_of_requesters 	1
scalar Network1000.node310 	number_of_resources 	55000
scalar Network1000.node310 	time_period 	3
scalar Network1000.node310 	number_of_messages 	2
scalar Network1000.node310 	discovery_latency 	6396
scalar Network1000.node310 	number_of_desired_resources 	20
scalar Network1000.node310 	query_homogenity_rate 	33.333333333333
scalar Network1000.node310 	qrecord_time 	13420.262595899
scalar Network1000.node310 	discovery_resolution_rate 	0
scalar Network1000.node780 	rate_of_requesters 	1
scalar Network1000.node780 	number_of_resources 	55000
scalar Network1000.node780 	time_period 	3
scalar Network1000.node780 	number_of_messages 	2
scalar Network1000.node780 	discovery_latency 	6462
scalar Network1000.node780 	number_of_desired_resources 	20
scalar Network1000.node780 	query_homogenity_rate 	33.333333333333
scalar Network1000.node780 	qrecord_time 	13442.22688292
scalar Network1000.node780 	discovery_resolution_rate 	0
scalar Network1000.node860 	rate_of_requesters 	1
scalar Network1000.node860 	number_of_resources 	55000
scalar Network1000.node860 	time_period 	2
scalar Network1000.node860 	number_of_messages 	2
scalar Network1000.node860 	discovery_latency 	6408
scalar Network1000.node860 	number_of_desired_resources 	20
scalar Network1000.node860 	query_homogenity_rate 	33.333333333333
scalar Network1000.node860 	qrecord_time 	13505.368601328
scalar Network1000.node860 	discovery_resolution_rate 	0
scalar Network1000.node930 	rate_of_requesters 	1
scalar Network1000.node930 	number_of_resources 	55000
scalar Network1000.node930 	time_period 	2
scalar Network1000.node930 	number_of_messages 	2
scalar Network1000.node930 	discovery_latency 	6420
scalar Network1000.node930 	number_of_desired_resources 	20
scalar Network1000.node930 	query_homogenity_rate 	33.333333333333
scalar Network1000.node930 	qrecord_time 	13506.20279366
scalar Network1000.node930 	discovery_resolution_rate 	0
scalar Network1000.node20 	rate_of_requesters 	1
scalar Network1000.node20 	number_of_resources 	55000
scalar Network1000.node20 	time_period 	4
scalar Network1000.node20 	number_of_messages 	2
scalar Network1000.node20 	discovery_latency 	6504
scalar Network1000.node20 	number_of_desired_resources 	20
scalar Network1000.node20 	query_homogenity_rate 	33.333333333333
scalar Network1000.node20 	qrecord_time 	13536.508224027
scalar Network1000.node20 	discovery_resolution_rate 	0
scalar Network1000.node600 	rate_of_requesters 	1
scalar Network1000.node600 	number_of_resources 	55000
scalar Network1000.node600 	time_period 	3
scalar Network1000.node600 	number_of_messages 	0
scalar Network1000.node600 	discovery_latency 	6480
scalar Network1000.node600 	number_of_desired_resources 	20
scalar Network1000.node600 	query_homogenity_rate 	33.333333333333
scalar Network1000.node600 	qrecord_time 	13558.979889192
scalar Network1000.node600 	discovery_resolution_rate 	0
scalar Network1000.node670 	rate_of_requesters 	1
scalar Network1000.node670 	number_of_resources 	55000
scalar Network1000.node670 	time_period 	2
scalar Network1000.node670 	number_of_messages 	2
scalar Network1000.node670 	discovery_latency 	6570
scalar Network1000.node670 	number_of_desired_resources 	20
scalar Network1000.node670 	query_homogenity_rate 	33.333333333333
scalar Network1000.node670 	qrecord_time 	13597.016610885
scalar Network1000.node670 	discovery_resolution_rate 	0
scalar Network1000.node850 	rate_of_requesters 	1
[...]
scalar Network1000.node50 	rate_of_requesters 	1
scalar Network1000.node50 	number_of_resources 	55000
scalar Network1000.node50 	time_period 	8
scalar Network1000.node50 	number_of_messages 	70
scalar Network1000.node50 	discovery_latency 	6336
scalar Network1000.node50 	number_of_desired_resources 	20
scalar Network1000.node50 	query_homogenity_rate 	33.333333333333
scalar Network1000.node50 	qrecord_time 	56268.379129176
scalar Network1000.node50 	discovery_resolution_rate 	33.333333333333
scalar Network1000.node520 	rate_of_requesters 	1
scalar Network1000.node520 	number_of_resources 	55000
scalar Network1000.node520 	time_period 	10
scalar Network1000.node520 	number_of_messages 	39
scalar Network1000.node520 	discovery_latency 	6192
scalar Network1000.node520 	number_of_desired_resources 	20
scalar Network1000.node520 	query_homogenity_rate 	33.333333333333
scalar Network1000.node520 	qrecord_time 	56365.103286678
scalar Network1000.node520 	discovery_resolution_rate 	33.333333333333
scalar Network1000.node190 	rate_of_requesters 	1
scalar Network1000.node190 	number_of_resources 	55000
scalar Network1000.node190 	time_period 	9
scalar Network1000.node190 	number_of_messages 	31
scalar Network1000.node190 	discovery_latency 	6258
scalar Network1000.node190 	number_of_desired_resources 	20
scalar Network1000.node190 	query_homogenity_rate 	33.333333333333
scalar Network1000.node190 	qrecord_time 	56440.069220778
scalar Network1000.node190 	discovery_resolution_rate 	66.666666666667
scalar Network1000.node180 	rate_of_requesters 	1
scalar Network1000.node180 	number_of_resources 	55000
scalar Network1000.node180 	time_period 	8
scalar Network1000.node180 	number_of_messages 	274
scalar Network1000.node180 	discovery_latency 	6408
scalar Network1000.node180 	number_of_desired_resources 	20
scalar Network1000.node180 	query_homogenity_rate 	33.333333333333
scalar Network1000.node180 	qrecord_time 	56528.582598026
scalar Network1000.node180 	discovery_resolution_rate 	16.666666666667
scalar Network1000.node660 	rate_of_requesters 	1
scalar Network1000.node660 	number_of_resources 	55000
scalar Network1000.node660 	time_period 	10
scalar Network1000.node660 	number_of_messages 	32
scalar Network1000.node660 	discovery_latency 	6528
scalar Network1000.node660 	number_of_desired_resources 	20
scalar Network1000.node660 	query_homogenity_rate 	33.333333333333
scalar Network1000.node660 	qrecord_time 	56554.54882629
scalar Network1000.node660 	discovery_resolution_rate 	33.333333333333
scalar Network1000.node810 	rate_of_requesters 	1
scalar Network1000.node810 	number_of_resources 	55000
scalar Network1000.node810 	time_period 	8
scalar Network1000.node810 	number_of_messages 	71
scalar Network1000.node810 	discovery_latency 	6300
scalar Network1000.node810 	number_of_desired_resources 	20
scalar Network1000.node810 	query_homogenity_rate 	33.333333333333
scalar Network1000.node810 	qrecord_time 	56590.299795309
scalar Network1000.node810 	discovery_resolution_rate 	66.666666666667
scalar Network1000.node330 	rate_of_requesters 	1
scalar Network1000.node330 	number_of_resources 	55000
scalar Network1000.node330 	time_period 	9
scalar Network1000.node330 	number_of_messages 	308
scalar Network1000.node330 	discovery_latency 	6444
scalar Network1000.node330 	number_of_desired_resources 	20
scalar Network1000.node330 	query_homogenity_rate 	33.333333333333
scalar Network1000.node330 	qrecord_time 	56654.176472476
scalar Network1000.node330 	discovery_resolution_rate 	66.666666666667
scalar Network1000.node820 	rate_of_requesters 	1
scalar Network1000.node820 	number_of_resources 	55000
scalar Network1000.node820 	time_period 	10
scalar Network1000.node820 	number_of_messages 	630
scalar Network1000.node820 	discovery_latency 	6174
scalar Network1000.node820 	number_of_desired_resources 	20
scalar Network1000.node820 	query_homogenity_rate 	33.333333333333
scalar Network1000.node820 	qrecord_time 	56720.796436968
scalar Network1000.node820 	discovery_resolution_rate 	66.666666666667
scalar Network1000.node820 	rate_of_requesters 	1
scalar Network1000.node820 	number_of_resources 	55000
scalar Network1000.node820 	time_period 	9
scalar Network1000.node820 	number_of_messages 	2
scalar Network1000.node820 	discovery_latency 	6684
scalar Network1000.node820 	number_of_desired_resources 	20
scalar Network1000.node820 	query_homogenity_rate 	33.333333333333
scalar Network1000.node820 	qrecord_time 	56828.124504076
scalar Network1000.node820 	discovery_resolution_rate 	0
scalar Network1000.node610 	rate_of_requesters 	1
scalar Network1000.node610 	number_of_resources 	55000
scalar Network1000.node610 	time_period 	10
scalar Network1000.node610 	number_of_messages 	88
scalar Network1000.node610 	discovery_latency 	6396
scalar Network1000.node610 	number_of_desired_resources 	20
scalar Network1000.node610 	query_homogenity_rate 	33.333333333333
scalar Network1000.node610 	qrecord_time 	57067.925473679
scalar Network1000.node610 	discovery_resolution_rate 	33.333333333333
scalar Network1000.node400 	rate_of_requesters 	1
scalar Network1000.node400 	number_of_resources 	55000
scalar Network1000.node400 	time_period 	7
scalar Network1000.node400 	number_of_messages 	343
scalar Network1000.node400 	discovery_latency 	6312
scalar Network1000.node400 	number_of_desired_resources 	20
scalar Network1000.node400 	query_homogenity_rate 	33.333333333333
scalar Network1000.node400 	qrecord_time 	57148.007895886
scalar Network1000.node400 	discovery_resolution_rate 	50
scalar Network1000.node650 	rate_of_requesters 	1
scalar Network1000.node650 	number_of_resources 	55000
scalar Network1000.node650 	time_period 	10
scalar Network1000.node650 	number_of_messages 	22
scalar Network1000.node650 	discovery_latency 	6348
scalar Network1000.node650 	number_of_desired_resources 	20
scalar Network1000.node650 	query_homogenity_rate 	33.333333333333
scalar Network1000.node650 	qrecord_time 	57562.546666661
scalar Network1000.node650 	discovery_resolution_rate 	33.333333333333
scalar Network1000.node30 	rate_of_requesters 	1
scalar Network1000.node30 	number_of_resources 	55000
scalar Network1000.node30 	time_period 	7
scalar Network1000.node30 	number_of_messages 	26
scalar Network1000.node30 	discovery_latency 	192
scalar Network1000.node30 	number_of_desired_resources 	20
scalar Network1000.node30 	query_homogenity_rate 	33.333333333333
scalar Network1000.node30 	qrecord_time 	57638.579347371
scalar Network1000.node30 	discovery_resolution_rate 	100
scalar Network1000.node580 	rate_of_requesters 	1
scalar Network1000.node580 	number_of_resources 	55000
scalar Network1000.node580 	time_period 	10
scalar Network1000.node580 	number_of_messages 	25
scalar Network1000.node580 	discovery_latency 	252
scalar Network1000.node580 	number_of_desired_resources 	20
scalar Network1000.node580 	query_homogenity_rate 	33.333333333333
scalar Network1000.node580 	qrecord_time 	57875.833907028
scalar Network1000.node580 	discovery_resolution_rate 	100
scalar Network1000.node50 	rate_of_requesters 	1
scalar Network1000.node50 	number_of_resources 	55000
scalar Network1000.node50 	time_period 	10
scalar Network1000.node50 	number_of_messages 	14
scalar Network1000.node50 	discovery_latency 	83.999999999996
scalar Network1000.node50 	number_of_desired_resources 	20
scalar Network1000.node50 	query_homogenity_rate 	33.333333333333
scalar Network1000.node50 	qrecord_time 	58091.59568094
scalar Network1000.node50 	discovery_resolution_rate 	100
scalar Network1000.node120 	rate_of_requesters 	1
scalar Network1000.node120 	number_of_resources 	55000
scalar Network1000.node120 	time_period 	9
scalar Network1000.node120 	number_of_messages 	22
scalar Network1000.node120 	discovery_latency 	240
scalar Network1000.node120 	number_of_desired_resources 	20
scalar Network1000.node120 	query_homogenity_rate 	33.333333333333
scalar Network1000.node120 	qrecord_time 	58643.970742182
scalar Network1000.node120 	discovery_resolution_rate 	100
scalar Network1000.node30 	rate_of_requesters 	1
scalar Network1000.node30 	number_of_resources 	55000
scalar Network1000.node30 	time_period 	8
scalar Network1000.node30 	number_of_messages 	30
scalar Network1000.node30 	discovery_latency 	240
scalar Network1000.node30 	number_of_desired_resources 	20
scalar Network1000.node30 	query_homogenity_rate 	33.333333333333
scalar Network1000.node30 	qrecord_time 	58757.480396975
scalar Network1000.node30 	discovery_resolution_rate 	100
scalar Network1000.node470 	rate_of_requesters 	1
scalar Network1000.node470 	number_of_resources 	55000
scalar Network1000.node470 	time_period 	10
scalar Network1000.node470 	number_of_messages 	20
scalar Network1000.node470 	discovery_latency 	156
scalar Network1000.node470 	number_of_desired_resources 	20
scalar Network1000.node470 	query_homogenity_rate 	33.333333333333
scalar Network1000.node470 	qrecord_time 	58768.796101151
scalar Network1000.node470 	discovery_resolution_rate 	100
scalar Network1000.node190 	rate_of_requesters 	1
scalar Network1000.node190 	number_of_resources 	55000
scalar Network1000.node190 	time_period 	10
scalar Network1000.node190 	number_of_messages 	19
scalar Network1000.node190 	discovery_latency 	120
scalar Network1000.node190 	number_of_desired_resources 	20
scalar Network1000.node190 	query_homogenity_rate 	33.333333333333
scalar Network1000.node190 	qrecord_time 	59199.969074424
scalar Network1000.node190 	discovery_resolution_rate 	100
scalar Network1000.node80 	rate_of_requesters 	1
scalar Network1000.node80 	number_of_resources 	55000
scalar Network1000.node80 	time_period 	10
scalar Network1000.node80 	number_of_messages 	30
scalar Network1000.node80 	discovery_latency 	264
scalar Network1000.node80 	number_of_desired_resources 	20
scalar Network1000.node80 	query_homogenity_rate 	33.333333333333
scalar Network1000.node80 	qrecord_time 	59577.404600668
scalar Network1000.node80 	discovery_resolution_rate 	100
scalar Network1000.node890 	rate_of_requesters 	1
scalar Network1000.node890 	number_of_resources 	55000
scalar Network1000.node890 	time_period 	10
scalar Network1000.node890 	number_of_messages 	24
scalar Network1000.node890 	discovery_latency 	156.00000000001
scalar Network1000.node890 	number_of_desired_resources 	20
scalar Network1000.node890 	query_homogenity_rate 	33.333333333333
scalar Network1000.node890 	qrecord_time 	60004.978135526
scalar Network1000.node890 	discovery_resolution_rate 	100
scalar Network1000.node430 	rate_of_requesters 	1
scalar Network1000.node430 	number_of_resources 	55000
scalar Network1000.node430 	time_period 	10
scalar Network1000.node430 	number_of_messages 	35
scalar Network1000.node430 	discovery_latency 	312
scalar Network1000.node430 	number_of_desired_resources 	20
scalar Network1000.node430 	query_homogenity_rate 	33.333333333333
scalar Network1000.node430 	qrecord_time 	60052.176479763
scalar Network1000.node430 	discovery_resolution_rate 	100
scalar Network1000.node700 	rate_of_requesters 	1
scalar Network1000.node700 	number_of_resources 	55000
scalar Network1000.node700 	time_period 	7
scalar Network1000.node700 	number_of_messages 	24
scalar Network1000.node700 	discovery_latency 	180
scalar Network1000.node700 	number_of_desired_resources 	20
scalar Network1000.node700 	query_homogenity_rate 	33.333333333333
scalar Network1000.node700 	qrecord_time 	60741.819902864
scalar Network1000.node700 	discovery_resolution_rate 	100
scalar Network1000.node810 	rate_of_requesters 	1
scalar Network1000.node810 	number_of_resources 	55000
scalar Network1000.node810 	time_period 	10
scalar Network1000.node810 	number_of_messages 	298
scalar Network1000.node810 	discovery_latency 	6060
scalar Network1000.node810 	number_of_desired_resources 	20
scalar Network1000.node810 	query_homogenity_rate 	33.333333333333
scalar Network1000.node810 	qrecord_time 	60942.752337262
scalar Network1000.node810 	discovery_resolution_rate 	83.333333333333
scalar Network1000.node50 	rate_of_requesters 	1
scalar Network1000.node50 	number_of_resources 	55000
scalar Network1000.node50 	time_period 	9
scalar Network1000.node50 	number_of_messages 	18
scalar Network1000.node50 	discovery_latency 	6168
scalar Network1000.node50 	number_of_desired_resources 	20
scalar Network1000.node50 	query_homogenity_rate 	33.333333333333
scalar Network1000.node50 	qrecord_time 	61146.717452695
scalar Network1000.node50 	discovery_resolution_rate 	66.666666666667
scalar Network1000.node30 	rate_of_requesters 	1
scalar Network1000.node30 	number_of_resources 	55000
scalar Network1000.node30 	time_period 	9
scalar Network1000.node30 	number_of_messages 	24
scalar Network1000.node30 	discovery_latency 	192
scalar Network1000.node30 	number_of_desired_resources 	20
scalar Network1000.node30 	query_homogenity_rate 	33.333333333333
scalar Network1000.node30 	qrecord_time 	61268.344933367
scalar Network1000.node30 	discovery_resolution_rate 	100
scalar Network1000.node700 	rate_of_requesters 	1
scalar Network1000.node700 	number_of_resources 	55000
scalar Network1000.node700 	time_period 	8
scalar Network1000.node700 	number_of_messages 	25
scalar Network1000.node700 	discovery_latency 	180
scalar Network1000.node700 	number_of_desired_resources 	20
scalar Network1000.node700 	query_homogenity_rate 	33.333333333333
scalar Network1000.node700 	qrecord_time 	61484.423678975
scalar Network1000.node700 	discovery_resolution_rate 	100
scalar Network1000.node400 	rate_of_requesters 	1
scalar Network1000.node400 	number_of_resources 	55000
scalar Network1000.node400 	time_period 	8
scalar Network1000.node400 	number_of_messages 	27
scalar Network1000.node400 	discovery_latency 	156
scalar Network1000.node400 	number_of_desired_resources 	20
scalar Network1000.node400 	query_homogenity_rate 	33.333333333333
scalar Network1000.node400 	qrecord_time 	61510.610477365
scalar Network1000.node400 	discovery_resolution_rate 	100
scalar Network1000.node850 	rate_of_requesters 	1
scalar Network1000.node850 	number_of_resources 	55000
scalar Network1000.node850 	time_period 	10
scalar Network1000.node850 	number_of_messages 	22
scalar Network1000.node850 	discovery_latency 	156.00000000001
scalar Network1000.node850 	number_of_desired_resources 	20
scalar Network1000.node850 	query_homogenity_rate 	33.333333333333
scalar Network1000.node850 	qrecord_time 	62208.075654562
scalar Network1000.node850 	discovery_resolution_rate 	100
scalar Network1000.node180 	rate_of_requesters 	1
scalar Network1000.node180 	number_of_resources 	55000
scalar Network1000.node180 	time_period 	9
scalar Network1000.node180 	number_of_messages 	20
scalar Network1000.node180 	discovery_latency 	108
scalar Network1000.node180 	number_of_desired_resources 	20
scalar Network1000.node180 	query_homogenity_rate 	33.333333333333
scalar Network1000.node180 	qrecord_time 	62359.556922636
scalar Network1000.node180 	discovery_resolution_rate 	100
scalar Network1000.node60 	rate_of_requesters 	1
scalar Network1000.node60 	number_of_resources 	55000
scalar Network1000.node60 	time_period 	10
scalar Network1000.node60 	number_of_messages 	21
scalar Network1000.node60 	discovery_latency 	156
scalar Network1000.node60 	number_of_desired_resources 	20
scalar Network1000.node60 	query_homogenity_rate 	33.333333333333
scalar Network1000.node60 	qrecord_time 	62656.187954851
scalar Network1000.node60 	discovery_resolution_rate 	100
scalar Network1000.node30 	rate_of_requesters 	1
scalar Network1000.node30 	number_of_resources 	55000
scalar Network1000.node30 	time_period 	10
scalar Network1000.node30 	number_of_messages 	24
scalar Network1000.node30 	discovery_latency 	192
scalar Network1000.node30 	number_of_desired_resources 	20
scalar Network1000.node30 	query_homogenity_rate 	33.333333333333
scalar Network1000.node30 	qrecord_time 	62944.642966481
scalar Network1000.node30 	discovery_resolution_rate 	100
scalar Network1000.node400 	rate_of_requesters 	1
scalar Network1000.node400 	number_of_resources 	55000
scalar Network1000.node400 	time_period 	9
scalar Network1000.node400 	number_of_messages 	33
scalar Network1000.node400 	discovery_latency 	300
scalar Network1000.node400 	number_of_desired_resources 	20
scalar Network1000.node400 	query_homogenity_rate 	33.333333333333
scalar Network1000.node400 	qrecord_time 	63490.237529853
scalar Network1000.node400 	discovery_resolution_rate 	100
scalar Network1000.node700 	rate_of_requesters 	1
scalar Network1000.node700 	number_of_resources 	55000
scalar Network1000.node700 	time_period 	9
scalar Network1000.node700 	number_of_messages 	26
scalar Network1000.node700 	discovery_latency 	180
scalar Network1000.node700 	number_of_desired_resources 	20
scalar Network1000.node700 	query_homogenity_rate 	33.333333333333
scalar Network1000.node700 	qrecord_time 	63903.111136027
scalar Network1000.node700 	discovery_resolution_rate 	100
scalar Network1000.node290 	rate_of_requesters 	1
scalar Network1000.node290 	number_of_resources 	55000
scalar Network1000.node290 	time_period 	9
scalar Network1000.node290 	number_of_messages 	31
scalar Network1000.node290 	discovery_latency 	276
scalar Network1000.node290 	number_of_desired_resources 	20
scalar Network1000.node290 	query_homogenity_rate 	33.333333333333
scalar Network1000.node290 	qrecord_time 	64186.117296593
scalar Network1000.node290 	discovery_resolution_rate 	100
scalar Network1000.node120 	rate_of_requesters 	1
scalar Network1000.node120 	number_of_resources 	55000
scalar Network1000.node120 	time_period 	10
scalar Network1000.node120 	number_of_messages 	18
scalar Network1000.node120 	discovery_latency 	180.00000000001
scalar Network1000.node120 	number_of_desired_resources 	20
scalar Network1000.node120 	query_homogenity_rate 	33.333333333333
scalar Network1000.node120 	qrecord_time 	64921.444749844
scalar Network1000.node120 	discovery_resolution_rate 	100
scalar Network1000.node290 	rate_of_requesters 	1
scalar Network1000.node290 	number_of_resources 	55000
scalar Network1000.node290 	time_period 	10
scalar Network1000.node290 	number_of_messages 	27
scalar Network1000.node290 	discovery_latency 	204.00000000001
scalar Network1000.node290 	number_of_desired_resources 	20
scalar Network1000.node290 	query_homogenity_rate 	33.333333333333
scalar Network1000.node290 	qrecord_time 	65560.325112764
scalar Network1000.node290 	discovery_resolution_rate 	100
scalar Network1000.node700 	rate_of_requesters 	1
scalar Network1000.node700 	number_of_resources 	55000
scalar Network1000.node700 	time_period 	10
scalar Network1000.node700 	number_of_messages 	23
scalar Network1000.node700 	discovery_latency 	168.00000000001
scalar Network1000.node700 	number_of_desired_resources 	20
scalar Network1000.node700 	query_homogenity_rate 	33.333333333333
scalar Network1000.node700 	qrecord_time 	67416.584507143
scalar Network1000.node700 	discovery_resolution_rate 	100
scalar Network1000.node400 	rate_of_requesters 	1
scalar Network1000.node400 	number_of_resources 	55000
scalar Network1000.node400 	time_period 	10
scalar Network1000.node400 	number_of_messages 	26
scalar Network1000.node400 	discovery_latency 	215.99999999999
scalar Network1000.node400 	number_of_desired_resources 	20
scalar Network1000.node400 	query_homogenity_rate 	33.333333333333
scalar Network1000.node400 	qrecord_time 	67486.162149981
scalar Network1000.node400 	discovery_resolution_rate 	100
scalar Network1000.node180 	rate_of_requesters 	1
scalar Network1000.node180 	number_of_resources 	55000
scalar Network1000.node180 	time_period 	10
scalar Network1000.node180 	number_of_messages 	18
scalar Network1000.node180 	discovery_latency 	108
scalar Network1000.node180 	number_of_desired_resources 	20
scalar Network1000.node180 	query_homogenity_rate 	33.333333333333
scalar Network1000.node180 	qrecord_time 	75588.566940048
scalar Network1000.node180 	discovery_resolution_rate 	100
