version 2
run net300-0-20150716-20:01:04-13310
attr as 1
attr configname net300
attr datetime 20150716-20:01:04
attr dnor 20
attr experiment net300
attr inifile omnetpp.ini
attr iterationvars "$rhdrq=3, $dnor=20, $as=1"
attr iterationvars2 "$rhdrq=3, $dnor=20, $as=1, $repetition=0"
attr measurement "$rhdrq=3, $dnor=20, $as=1"
attr network Network300
attr processid 13310
attr repetition 0
attr replication #0
attr resultdir results
attr rhdrq 3
attr runnumber 0
attr seedset 0

scalar . 	as 	1
scalar . 	dnor 	20
scalar . 	rhdrq 	3
scalar Network300.node20 	rate_of_requesters 	1
scalar Network300.node20 	number_of_resources 	16500
scalar Network300.node20 	time_period 	1
scalar Network300.node20 	number_of_messages 	13
scalar Network300.node20 	discovery_latency 	72
scalar Network300.node20 	number_of_desired_resources 	20
scalar Network300.node20 	query_homogenity_rate 	33.333333333333
scalar Network300.node20 	qrecord_time 	4744
scalar Network300.node20 	discovery_resolution_rate 	100
scalar Network300.node150 	rate_of_requesters 	1
scalar Network300.node150 	number_of_resources 	16500
scalar Network300.node150 	time_period 	1
scalar Network300.node150 	number_of_messages 	24
scalar Network300.node150 	discovery_latency 	168
scalar Network300.node150 	number_of_desired_resources 	20
scalar Network300.node150 	query_homogenity_rate 	33.333333333333
scalar Network300.node150 	qrecord_time 	4810
scalar Network300.node150 	discovery_resolution_rate 	100
scalar Network300.node200 	rate_of_requesters 	1
scalar Network300.node200 	number_of_resources 	16500
scalar Network300.node200 	time_period 	1
scalar Network300.node200 	number_of_messages 	22
scalar Network300.node200 	discovery_latency 	120
scalar Network300.node200 	number_of_desired_resources 	20
scalar Network300.node200 	query_homogenity_rate 	33.333333333333
scalar Network300.node200 	qrecord_time 	4846
scalar Network300.node200 	discovery_resolution_rate 	100
scalar Network300.node230 	rate_of_requesters 	1
scalar Network300.node230 	number_of_resources 	16500
scalar Network300.node230 	time_period 	1
scalar Network300.node230 	number_of_messages 	34
scalar Network300.node230 	discovery_latency 	324
scalar Network300.node230 	number_of_desired_resources 	20
scalar Network300.node230 	query_homogenity_rate 	33.333333333333
scalar Network300.node230 	qrecord_time 	5032
scalar Network300.node230 	discovery_resolution_rate 	100
scalar Network300.node120 	rate_of_requesters 	1
scalar Network300.node120 	number_of_resources 	16500
scalar Network300.node120 	time_period 	1
scalar Network300.node120 	number_of_messages 	45
scalar Network300.node120 	discovery_latency 	420
scalar Network300.node120 	number_of_desired_resources 	20
scalar Network300.node120 	query_homogenity_rate 	33.333333333333
scalar Network300.node120 	qrecord_time 	5116
scalar Network300.node120 	discovery_resolution_rate 	100
scalar Network300.node80 	rate_of_requesters 	1
scalar Network300.node80 	number_of_resources 	16500
scalar Network300.node80 	time_period 	1
scalar Network300.node80 	number_of_messages 	23
scalar Network300.node80 	discovery_latency 	1608
scalar Network300.node80 	number_of_desired_resources 	20
scalar Network300.node80 	query_homogenity_rate 	33.333333333333
scalar Network300.node80 	qrecord_time 	6274
scalar Network300.node80 	discovery_resolution_rate 	66.666666666667
scalar Network300.node190 	rate_of_requesters 	1
scalar Network300.node190 	number_of_resources 	16500
scalar Network300.node190 	time_period 	1
scalar Network300.node190 	number_of_messages 	31
scalar Network300.node190 	discovery_latency 	1632
scalar Network300.node190 	number_of_desired_resources 	20
scalar Network300.node190 	query_homogenity_rate 	33.333333333333
scalar Network300.node190 	qrecord_time 	6280
scalar Network300.node190 	discovery_resolution_rate 	66.666666666667
scalar Network300.node260 	rate_of_requesters 	1
scalar Network300.node260 	number_of_resources 	16500
scalar Network300.node260 	time_period 	1
scalar Network300.node260 	number_of_messages 	20
scalar Network300.node260 	discovery_latency 	1656
scalar Network300.node260 	number_of_desired_resources 	20
scalar Network300.node260 	query_homogenity_rate 	33.333333333333
scalar Network300.node260 	qrecord_time 	6340
scalar Network300.node260 	discovery_resolution_rate 	66.666666666667
scalar Network300.node180 	rate_of_requesters 	1
scalar Network300.node180 	number_of_resources 	16500
scalar Network300.node180 	time_period 	1
scalar Network300.node180 	number_of_messages 	16
scalar Network300.node180 	discovery_latency 	1620
scalar Network300.node180 	number_of_desired_resources 	20
scalar Network300.node180 	query_homogenity_rate 	33.333333333333
scalar Network300.node180 	qrecord_time 	6346
scalar Network300.node180 	discovery_resolution_rate 	66.666666666667
scalar Network300.node30 	rate_of_requesters 	1
scalar Network300.node30 	number_of_resources 	16500
scalar Network300.node30 	time_period 	1
scalar Network300.node30 	number_of_messages 	11
scalar Network300.node30 	discovery_latency 	1644
scalar Network300.node30 	number_of_desired_resources 	20
scalar Network300.node30 	query_homogenity_rate 	33.333333333333
scalar Network300.node30 	qrecord_time 	6358
scalar Network300.node30 	discovery_resolution_rate 	66.666666666667
scalar Network300.node70 	rate_of_requesters 	1
scalar Network300.node70 	number_of_resources 	16500
scalar Network300.node70 	time_period 	1
scalar Network300.node70 	number_of_messages 	29
scalar Network300.node70 	discovery_latency 	1656
scalar Network300.node70 	number_of_desired_resources 	20
scalar Network300.node70 	query_homogenity_rate 	33.333333333333
scalar Network300.node70 	qrecord_time 	6370
scalar Network300.node70 	discovery_resolution_rate 	66.666666666667
scalar Network300.node40 	rate_of_requesters 	1
scalar Network300.node40 	number_of_resources 	16500
scalar Network300.node40 	time_period 	1
scalar Network300.node40 	number_of_messages 	29
scalar Network300.node40 	discovery_latency 	1680
scalar Network300.node40 	number_of_desired_resources 	20
scalar Network300.node40 	query_homogenity_rate 	33.333333333333
scalar Network300.node40 	qrecord_time 	6394
scalar Network300.node40 	discovery_resolution_rate 	66.666666666667
scalar Network300.node240 	rate_of_requesters 	1
scalar Network300.node240 	number_of_resources 	16500
scalar Network300.node240 	time_period 	1
scalar Network300.node240 	number_of_messages 	11
scalar Network300.node240 	discovery_latency 	1668
scalar Network300.node240 	number_of_desired_resources 	20
scalar Network300.node240 	query_homogenity_rate 	33.333333333333
scalar Network300.node240 	qrecord_time 	6400
scalar Network300.node240 	discovery_resolution_rate 	66.666666666667
scalar Network300.node140 	rate_of_requesters 	1
scalar Network300.node140 	number_of_resources 	16500
scalar Network300.node140 	time_period 	1
scalar Network300.node140 	number_of_messages 	11
scalar Network300.node140 	discovery_latency 	1680
scalar Network300.node140 	number_of_desired_resources 	20
scalar Network300.node140 	query_homogenity_rate 	33.333333333333
scalar Network300.node140 	qrecord_time 	6406
scalar Network300.node140 	discovery_resolution_rate 	66.666666666667
scalar Network300.node50 	rate_of_requesters 	1
scalar Network300.node50 	number_of_resources 	16500
scalar Network300.node50 	time_period 	1
scalar Network300.node50 	number_of_messages 	81
scalar Network300.node50 	discovery_latency 	1680
scalar Network300.node50 	number_of_desired_resources 	20
scalar Network300.node50 	query_homogenity_rate 	33.333333333333
scalar Network300.node50 	qrecord_time 	6412
scalar Network300.node50 	discovery_resolution_rate 	66.666666666667
scalar Network300.node160 	rate_of_requesters 	1
scalar Network300.node160 	number_of_resources 	16500
scalar Network300.node160 	time_period 	1
scalar Network300.node160 	number_of_messages 	22
scalar Network300.node160 	discovery_latency 	1692
scalar Network300.node160 	number_of_desired_resources 	20
scalar Network300.node160 	query_homogenity_rate 	33.333333333333
scalar Network300.node160 	qrecord_time 	6418
scalar Network300.node160 	discovery_resolution_rate 	66.666666666667
scalar Network300.node10 	rate_of_requesters 	1
scalar Network300.node10 	number_of_resources 	16500
scalar Network300.node10 	time_period 	1
scalar Network300.node10 	number_of_messages 	11
scalar Network300.node10 	discovery_latency 	1764
scalar Network300.node10 	number_of_desired_resources 	20
scalar Network300.node10 	query_homogenity_rate 	33.333333333333
scalar Network300.node10 	qrecord_time 	6430
scalar Network300.node10 	discovery_resolution_rate 	66.666666666667
scalar Network300.node0 	rate_of_requesters 	1
scalar Network300.node0 	number_of_resources 	16500
scalar Network300.node0 	time_period 	1
scalar Network300.node0 	number_of_messages 	11
scalar Network300.node0 	discovery_latency 	1728
scalar Network300.node0 	number_of_desired_resources 	20
scalar Network300.node0 	query_homogenity_rate 	33.333333333333
scalar Network300.node0 	qrecord_time 	6448
scalar Network300.node0 	discovery_resolution_rate 	66.666666666667
scalar Network300.node60 	rate_of_requesters 	1
scalar Network300.node60 	number_of_resources 	16500
scalar Network300.node60 	time_period 	2
scalar Network300.node60 	number_of_messages 	96
scalar Network300.node60 	discovery_latency 	1704
scalar Network300.node60 	number_of_desired_resources 	20
scalar Network300.node60 	query_homogenity_rate 	33.333333333333
scalar Network300.node60 	qrecord_time 	6468.617365506
scalar Network300.node60 	discovery_resolution_rate 	83.333333333333
scalar Network300.node290 	rate_of_requesters 	1
scalar Network300.node290 	number_of_resources 	16500
scalar Network300.node290 	time_period 	1
scalar Network300.node290 	number_of_messages 	25
scalar Network300.node290 	discovery_latency 	1800
scalar Network300.node290 	number_of_desired_resources 	20
scalar Network300.node290 	query_homogenity_rate 	33.333333333333
scalar Network300.node290 	qrecord_time 	6484
scalar Network300.node290 	discovery_resolution_rate 	66.666666666667
scalar Network300.node130 	rate_of_requesters 	1
scalar Network300.node130 	number_of_resources 	16500
scalar Network300.node130 	time_period 	1
scalar Network300.node130 	number_of_messages 	151
scalar Network300.node130 	discovery_latency 	1776
scalar Network300.node130 	number_of_desired_resources 	20
scalar Network300.node130 	query_homogenity_rate 	33.333333333333
scalar Network300.node130 	qrecord_time 	6490
scalar Network300.node130 	discovery_resolution_rate 	83.333333333333
scalar Network300.node280 	rate_of_requesters 	1
scalar Network300.node280 	number_of_resources 	16500
scalar Network300.node280 	time_period 	1
scalar Network300.node280 	number_of_messages 	37
scalar Network300.node280 	discovery_latency 	1728
scalar Network300.node280 	number_of_desired_resources 	20
scalar Network300.node280 	query_homogenity_rate 	33.333333333333
scalar Network300.node280 	qrecord_time 	6496
scalar Network300.node280 	discovery_resolution_rate 	66.666666666667
scalar Network300.node100 	rate_of_requesters 	1
scalar Network300.node100 	number_of_resources 	16500
scalar Network300.node100 	time_period 	1
scalar Network300.node100 	number_of_messages 	36
scalar Network300.node100 	discovery_latency 	1728
scalar Network300.node100 	number_of_desired_resources 	20
scalar Network300.node100 	query_homogenity_rate 	33.333333333333
scalar Network300.node100 	qrecord_time 	6502
scalar Network300.node100 	discovery_resolution_rate 	66.666666666667
scalar Network300.node110 	rate_of_requesters 	1
scalar Network300.node110 	number_of_resources 	16500
scalar Network300.node110 	time_period 	1
scalar Network300.node110 	number_of_messages 	84
scalar Network300.node110 	discovery_latency 	1692
scalar Network300.node110 	number_of_desired_resources 	20
scalar Network300.node110 	query_homogenity_rate 	33.333333333333
scalar Network300.node110 	qrecord_time 	6502
scalar Network300.node110 	discovery_resolution_rate 	66.666666666667
scalar Network300.node170 	rate_of_requesters 	1
scalar Network300.node170 	number_of_resources 	16500
scalar Network300.node170 	time_period 	1
scalar Network300.node170 	number_of_messages 	10
scalar Network300.node170 	discovery_latency 	1728
scalar Network300.node170 	number_of_desired_resources 	20
scalar Network300.node170 	query_homogenity_rate 	33.333333333333
scalar Network300.node170 	qrecord_time 	6502
scalar Network300.node170 	discovery_resolution_rate 	66.666666666667
scalar Network300.node210 	rate_of_requesters 	1
scalar Network300.node210 	number_of_resources 	16500
scalar Network300.node210 	time_period 	1
scalar Network300.node210 	number_of_messages 	10
scalar Network300.node210 	discovery_latency 	1752
scalar Network300.node210 	number_of_desired_resources 	20
scalar Network300.node210 	query_homogenity_rate 	33.333333333333
scalar Network300.node210 	qrecord_time 	6526
scalar Network300.node210 	discovery_resolution_rate 	66.666666666667
scalar Network300.node250 	rate_of_requesters 	1
scalar Network300.node250 	number_of_resources 	16500
scalar Network300.node250 	time_period 	1
scalar Network300.node250 	number_of_messages 	13
scalar Network300.node250 	discovery_latency 	1932
scalar Network300.node250 	number_of_desired_resources 	20
scalar Network300.node250 	query_homogenity_rate 	33.333333333333
scalar Network300.node250 	qrecord_time 	6652
scalar Network300.node250 	discovery_resolution_rate 	66.666666666667
scalar Network300.node90 	rate_of_requesters 	1
scalar Network300.node90 	number_of_resources 	16500
scalar Network300.node90 	time_period 	2
scalar Network300.node90 	number_of_messages 	21
scalar Network300.node90 	discovery_latency 	1920
scalar Network300.node90 	number_of_desired_resources 	20
scalar Network300.node90 	query_homogenity_rate 	33.333333333333
scalar Network300.node90 	qrecord_time 	6674.415476296
scalar Network300.node90 	discovery_resolution_rate 	33.333333333333
scalar Network300.node90 	rate_of_requesters 	1
scalar Network300.node90 	number_of_resources 	16500
scalar Network300.node90 	time_period 	1
scalar Network300.node90 	number_of_messages 	7
scalar Network300.node90 	discovery_latency 	1992
scalar Network300.node90 	number_of_desired_resources 	20
scalar Network300.node90 	query_homogenity_rate 	33.333333333333
scalar Network300.node90 	qrecord_time 	6724
scalar Network300.node90 	discovery_resolution_rate 	33.333333333333
scalar Network300.node270 	rate_of_requesters 	1
scalar Network300.node270 	number_of_resources 	16500
scalar Network300.node270 	time_period 	1
scalar Network300.node270 	number_of_messages 	32
scalar Network300.node270 	discovery_latency 	2052
scalar Network300.node270 	number_of_desired_resources 	20
scalar Network300.node270 	query_homogenity_rate 	33.333333333333
scalar Network300.node270 	qrecord_time 	6760
scalar Network300.node270 	discovery_resolution_rate 	33.333333333333
scalar Network300.node60 	rate_of_requesters 	1
scalar Network300.node60 	number_of_resources 	16500
scalar Network300.node60 	time_period 	1
scalar Network300.node60 	number_of_messages 	4
scalar Network300.node60 	discovery_latency 	2088
scalar Network300.node60 	number_of_desired_resources 	20
scalar Network300.node60 	query_homogenity_rate 	33.333333333333
scalar Network300.node60 	qrecord_time 	6814
scalar Network300.node60 	discovery_resolution_rate 	33.333333333333
scalar Network300.node220 	rate_of_requesters 	1
scalar Network300.node220 	number_of_resources 	16500
scalar Network300.node220 	time_period 	1
scalar Network300.node220 	number_of_messages 	127
scalar Network300.node220 	discovery_latency 	2124
scalar Network300.node220 	number_of_desired_resources 	20
scalar Network300.node220 	query_homogenity_rate 	33.333333333333
scalar Network300.node220 	qrecord_time 	6976
scalar Network300.node220 	discovery_resolution_rate 	50
scalar Network300.node40 	rate_of_requesters 	1
scalar Network300.node40 	number_of_resources 	16500
scalar Network300.node40 	time_period 	2
scalar Network300.node40 	number_of_messages 	108
scalar Network300.node40 	discovery_latency 	2028
scalar Network300.node40 	number_of_desired_resources 	20
scalar Network300.node40 	query_homogenity_rate 	33.333333333333
scalar Network300.node40 	qrecord_time 	7368.135524168
scalar Network300.node40 	discovery_resolution_rate 	33.333333333333
scalar Network300.node170 	rate_of_requesters 	1
scalar Network300.node170 	number_of_resources 	16500
scalar Network300.node170 	time_period 	2
scalar Network300.node170 	number_of_messages 	143
scalar Network300.node170 	discovery_latency 	2076
scalar Network300.node170 	number_of_desired_resources 	20
scalar Network300.node170 	query_homogenity_rate 	33.333333333333
scalar Network300.node170 	qrecord_time 	7381.34120039
scalar Network300.node170 	discovery_resolution_rate 	50
scalar Network300.node290 	rate_of_requesters 	1
scalar Network300.node290 	number_of_resources 	16500
scalar Network300.node290 	time_period 	2
scalar Network300.node290 	number_of_messages 	104
scalar Network300.node290 	discovery_latency 	2076
scalar Network300.node290 	number_of_desired_resources 	20
scalar Network300.node290 	query_homogenity_rate 	33.333333333333
scalar Network300.node290 	qrecord_time 	7404.373531644
scalar Network300.node290 	discovery_resolution_rate 	33.333333333333
scalar Network300.node110 	rate_of_requesters 	1
scalar Network300.node110 	number_of_resources 	16500
scalar Network300.node110 	time_period 	3
scalar Network300.node110 	number_of_messages 	27
scalar Network300.node110 	discovery_latency 	204
scalar Network300.node110 	number_of_desired_resources 	20
scalar Network300.node110 	query_homogenity_rate 	33.333333333333
scalar Network300.node110 	qrecord_time 	7650.787486114
scalar Network300.node110 	discovery_resolution_rate 	100
scalar Network300.node90 	rate_of_requesters 	1
scalar Network300.node90 	number_of_resources 	16500
scalar Network300.node90 	time_period 	3
scalar Network300.node90 	number_of_messages 	45
scalar Network300.node90 	discovery_latency 	1692
scalar Network300.node90 	number_of_desired_resources 	20
scalar Network300.node90 	query_homogenity_rate 	33.333333333333
scalar Network300.node90 	qrecord_time 	7673.241487115
scalar Network300.node90 	discovery_resolution_rate 	66.666666666667
scalar Network300.node290 	rate_of_requesters 	1
scalar Network300.node290 	number_of_resources 	16500
scalar Network300.node290 	time_period 	3
scalar Network300.node290 	number_of_messages 	66
scalar Network300.node290 	discovery_latency 	468
scalar Network300.node290 	number_of_desired_resources 	20
scalar Network300.node290 	query_homogenity_rate 	33.333333333333
scalar Network300.node290 	qrecord_time 	8132.614300714
scalar Network300.node290 	discovery_resolution_rate 	100
scalar Network300.node70 	rate_of_requesters 	1
scalar Network300.node70 	number_of_resources 	16500
scalar Network300.node70 	time_period 	2
scalar Network300.node70 	number_of_messages 	111
scalar Network300.node70 	discovery_latency 	2064
scalar Network300.node70 	number_of_desired_resources 	20
scalar Network300.node70 	query_homogenity_rate 	33.333333333333
scalar Network300.node70 	qrecord_time 	8156.564099771
scalar Network300.node70 	discovery_resolution_rate 	66.666666666667
scalar Network300.node240 	rate_of_requesters 	1
scalar Network300.node240 	number_of_resources 	16500
scalar Network300.node240 	time_period 	2
scalar Network300.node240 	number_of_messages 	109
scalar Network300.node240 	discovery_latency 	2016
scalar Network300.node240 	number_of_desired_resources 	20
scalar Network300.node240 	query_homogenity_rate 	33.333333333333
scalar Network300.node240 	qrecord_time 	8259.587805444
scalar Network300.node240 	discovery_resolution_rate 	33.333333333333
scalar Network300.node70 	rate_of_requesters 	1
scalar Network300.node70 	number_of_resources 	16500
scalar Network300.node70 	time_period 	3
scalar Network300.node70 	number_of_messages 	111
scalar Network300.node70 	discovery_latency 	2076
scalar Network300.node70 	number_of_desired_resources 	20
scalar Network300.node70 	query_homogenity_rate 	33.333333333333
scalar Network300.node70 	qrecord_time 	8302.805982291
scalar Network300.node70 	discovery_resolution_rate 	16.666666666667
scalar Network300.node40 	rate_of_requesters 	1
scalar Network300.node40 	number_of_resources 	16500
scalar Network300.node40 	time_period 	4
scalar Network300.node40 	number_of_messages 	44
scalar Network300.node40 	discovery_latency 	384
scalar Network300.node40 	number_of_desired_resources 	20
scalar Network300.node40 	query_homogenity_rate 	33.333333333333
scalar Network300.node40 	qrecord_time 	8346.047342452
scalar Network300.node40 	discovery_resolution_rate 	100
scalar Network300.node60 	rate_of_requesters 	1
scalar Network300.node60 	number_of_resources 	16500
scalar Network300.node60 	time_period 	3
scalar Network300.node60 	number_of_messages 	2
scalar Network300.node60 	discovery_latency 	2016
scalar Network300.node60 	number_of_desired_resources 	20
scalar Network300.node60 	query_homogenity_rate 	33.333333333333
scalar Network300.node60 	qrecord_time 	8469.773925384
scalar Network300.node60 	discovery_resolution_rate 	0
scalar Network300.node20 	rate_of_requesters 	1
scalar Network300.node20 	number_of_resources 	16500
scalar Network300.node20 	time_period 	2
scalar Network300.node20 	number_of_messages 	0
scalar Network300.node20 	discovery_latency 	2052
scalar Network300.node20 	number_of_desired_resources 	20
scalar Network300.node20 	query_homogenity_rate 	33.333333333333
scalar Network300.node20 	qrecord_time 	8651.118940817
scalar Network300.node20 	discovery_resolution_rate 	0
scalar Network300.node40 	rate_of_requesters 	1
scalar Network300.node40 	number_of_resources 	16500
scalar Network300.node40 	time_period 	3
scalar Network300.node40 	number_of_messages 	2
scalar Network300.node40 	discovery_latency 	2064
scalar Network300.node40 	number_of_desired_resources 	20
scalar Network300.node40 	query_homogenity_rate 	33.333333333333
scalar Network300.node40 	qrecord_time 	8699.680970669
scalar Network300.node40 	discovery_resolution_rate 	0
scalar Network300.node110 	rate_of_requesters 	1
scalar Network300.node110 	number_of_resources 	16500
scalar Network300.node110 	time_period 	2
scalar Network300.node110 	number_of_messages 	2
scalar Network300.node110 	discovery_latency 	2064
scalar Network300.node110 	number_of_desired_resources 	20
scalar Network300.node110 	query_homogenity_rate 	33.333333333333
scalar Network300.node110 	qrecord_time 	8765.657407883
scalar Network300.node110 	discovery_resolution_rate 	0
scalar Network300.node280 	rate_of_requesters 	1
scalar Network300.node280 	number_of_resources 	16500
scalar Network300.node280 	time_period 	2
scalar Network300.node280 	number_of_messages 	2
scalar Network300.node280 	discovery_latency 	2100
scalar Network300.node280 	number_of_desired_resources 	20
scalar Network300.node280 	query_homogenity_rate 	33.333333333333
scalar Network300.node280 	qrecord_time 	8792.775588503
scalar Network300.node280 	discovery_resolution_rate 	0
scalar Network300.node0 	rate_of_requesters 	1
scalar Network300.node0 	number_of_resources 	16500
scalar Network300.node0 	time_period 	2
scalar Network300.node0 	number_of_messages 	0
scalar Network300.node0 	discovery_latency 	2124
scalar Network300.node0 	number_of_desired_resources 	20
scalar Network300.node0 	query_homogenity_rate 	33.333333333333
scalar Network300.node0 	qrecord_time 	8817.910983232
scalar Network300.node0 	discovery_resolution_rate 	0
scalar Network300.node80 	rate_of_requesters 	1
scalar Network300.node80 	number_of_resources 	16500
scalar Network300.node80 	time_period 	2
scalar Network300.node80 	number_of_messages 	2
scalar Network300.node80 	discovery_latency 	2040
scalar Network300.node80 	number_of_desired_resources 	20
scalar Network300.node80 	query_homogenity_rate 	33.333333333333
scalar Network300.node80 	qrecord_time 	8950.777496986
scalar Network300.node80 	discovery_resolution_rate 	0
scalar Network300.node190 	rate_of_requesters 	1
scalar Network300.node190 	number_of_resources 	16500
scalar Network300.node190 	time_period 	2
scalar Network300.node190 	number_of_messages 	0
scalar Network300.node190 	discovery_latency 	2028
scalar Network300.node190 	number_of_desired_resources 	20
scalar Network300.node190 	query_homogenity_rate 	33.333333333333
scalar Network300.node190 	qrecord_time 	8997.189317747
scalar Network300.node190 	discovery_resolution_rate 	0
scalar Network300.node220 	rate_of_requesters 	1
scalar Network300.node220 	number_of_resources 	16500
scalar Network300.node220 	time_period 	2
scalar Network300.node220 	number_of_messages 	41
scalar Network300.node220 	discovery_latency 	2088
scalar Network300.node220 	number_of_desired_resources 	20
scalar Network300.node220 	query_homogenity_rate 	33.333333333333
scalar Network300.node220 	qrecord_time 	9088.406122035
scalar Network300.node220 	discovery_resolution_rate 	33.333333333333
scalar Network300.node200 	rate_of_requesters 	1
scalar Network300.node200 	number_of_resources 	16500
scalar Network300.node200 	time_period 	2
scalar Network300.node200 	number_of_messages 	38
scalar Network300.node200 	discovery_latency 	480
scalar Network300.node200 	number_of_desired_resources 	20
scalar Network300.node200 	query_homogenity_rate 	33.333333333333
scalar Network300.node200 	qrecord_time 	9365.432907223
scalar Network300.node200 	discovery_resolution_rate 	100
scalar Network300.node140 	rate_of_requesters 	1
scalar Network300.node140 	number_of_resources 	16500
scalar Network300.node140 	time_period 	2
scalar Network300.node140 	number_of_messages 	142
scalar Network300.node140 	discovery_latency 	2076
scalar Network300.node140 	number_of_desired_resources 	20
scalar Network300.node140 	query_homogenity_rate 	33.333333333333
scalar Network300.node140 	qrecord_time 	9416.003211728
scalar Network300.node140 	discovery_resolution_rate 	66.666666666667
scalar Network300.node240 	rate_of_requesters 	1
scalar Network300.node240 	number_of_resources 	16500
scalar Network300.node240 	time_period 	3
scalar Network300.node240 	number_of_messages 	110
scalar Network300.node240 	discovery_latency 	2064
scalar Network300.node240 	number_of_desired_resources 	20
scalar Network300.node240 	query_homogenity_rate 	33.333333333333
scalar Network300.node240 	qrecord_time 	9428.032027273
scalar Network300.node240 	discovery_resolution_rate 	33.333333333333
scalar Network300.node150 	rate_of_requesters 	1
scalar Network300.node150 	number_of_resources 	16500
scalar Network300.node150 	time_period 	2
scalar Network300.node150 	number_of_messages 	45
scalar Network300.node150 	discovery_latency 	1740
scalar Network300.node150 	number_of_desired_resources 	20
scalar Network300.node150 	query_homogenity_rate 	33.333333333333
scalar Network300.node150 	qrecord_time 	9906.414420561
scalar Network300.node150 	discovery_resolution_rate 	66.666666666667
scalar Network300.node170 	rate_of_requesters 	1
scalar Network300.node170 	number_of_resources 	16500
scalar Network300.node170 	time_period 	3
scalar Network300.node170 	number_of_messages 	50
scalar Network300.node170 	discovery_latency 	264
scalar Network300.node170 	number_of_desired_resources 	20
scalar Network300.node170 	query_homogenity_rate 	33.333333333333
scalar Network300.node170 	qrecord_time 	9933.671458875
scalar Network300.node170 	discovery_resolution_rate 	100
scalar Network300.node20 	rate_of_requesters 	1
scalar Network300.node20 	number_of_resources 	16500
scalar Network300.node20 	time_period 	3
scalar Network300.node20 	number_of_messages 	97
scalar Network300.node20 	discovery_latency 	1716
scalar Network300.node20 	number_of_desired_resources 	20
scalar Network300.node20 	query_homogenity_rate 	33.333333333333
scalar Network300.node20 	qrecord_time 	9988.395666341
scalar Network300.node20 	discovery_resolution_rate 	83.333333333333
scalar Network300.node240 	rate_of_requesters 	1
scalar Network300.node240 	number_of_resources 	16500
scalar Network300.node240 	time_period 	4
scalar Network300.node240 	number_of_messages 	54
scalar Network300.node240 	discovery_latency 	1740
scalar Network300.node240 	number_of_desired_resources 	20
scalar Network300.node240 	query_homogenity_rate 	33.333333333333
scalar Network300.node240 	qrecord_time 	10010.717641622
scalar Network300.node240 	discovery_resolution_rate 	66.666666666667
scalar Network300.node10 	rate_of_requesters 	1
scalar Network300.node10 	number_of_resources 	16500
scalar Network300.node10 	time_period 	2
scalar Network300.node10 	number_of_messages 	10
scalar Network300.node10 	discovery_latency 	1704
scalar Network300.node10 	number_of_desired_resources 	20
scalar Network300.node10 	query_homogenity_rate 	33.333333333333
scalar Network300.node10 	qrecord_time 	10036.489660046
scalar Network300.node10 	discovery_resolution_rate 	66.666666666667
scalar Network300.node50 	rate_of_requesters 	1
scalar Network300.node50 	number_of_resources 	16500
scalar Network300.node50 	time_period 	2
scalar Network300.node50 	number_of_messages 	25
scalar Network300.node50 	discovery_latency 	1740
scalar Network300.node50 	number_of_desired_resources 	20
scalar Network300.node50 	query_homogenity_rate 	33.333333333333
scalar Network300.node50 	qrecord_time 	10159.720364823
scalar Network300.node50 	discovery_resolution_rate 	66.666666666667
scalar Network300.node180 	rate_of_requesters 	1
scalar Network300.node180 	number_of_resources 	16500
scalar Network300.node180 	time_period 	2
scalar Network300.node180 	number_of_messages 	55
scalar Network300.node180 	discovery_latency 	1692
scalar Network300.node180 	number_of_desired_resources 	20
scalar Network300.node180 	query_homogenity_rate 	33.333333333333
scalar Network300.node180 	qrecord_time 	10494.15112734
scalar Network300.node180 	discovery_resolution_rate 	66.666666666667
scalar Network300.node210 	rate_of_requesters 	1
scalar Network300.node210 	number_of_resources 	16500
scalar Network300.node210 	time_period 	2
scalar Network300.node210 	number_of_messages 	37
scalar Network300.node210 	discovery_latency 	1704
scalar Network300.node210 	number_of_desired_resources 	20
scalar Network300.node210 	query_homogenity_rate 	33.333333333333
scalar Network300.node210 	qrecord_time 	10505.263201609
scalar Network300.node210 	discovery_resolution_rate 	66.666666666667
scalar Network300.node160 	rate_of_requesters 	1
scalar Network300.node160 	number_of_resources 	16500
scalar Network300.node160 	time_period 	2
scalar Network300.node160 	number_of_messages 	36
scalar Network300.node160 	discovery_latency 	1644
scalar Network300.node160 	number_of_desired_resources 	20
scalar Network300.node160 	query_homogenity_rate 	33.333333333333
scalar Network300.node160 	qrecord_time 	10511.399718782
scalar Network300.node160 	discovery_resolution_rate 	66.666666666667
scalar Network300.node30 	rate_of_requesters 	1
scalar Network300.node30 	number_of_resources 	16500
scalar Network300.node30 	time_period 	2
scalar Network300.node30 	number_of_messages 	98
scalar Network300.node30 	discovery_latency 	1656
scalar Network300.node30 	number_of_desired_resources 	20
scalar Network300.node30 	query_homogenity_rate 	33.333333333333
scalar Network300.node30 	qrecord_time 	10766.725779713
scalar Network300.node30 	discovery_resolution_rate 	66.666666666667
scalar Network300.node260 	rate_of_requesters 	1
scalar Network300.node260 	number_of_resources 	16500
scalar Network300.node260 	time_period 	2
scalar Network300.node260 	number_of_messages 	37
scalar Network300.node260 	discovery_latency 	1716
scalar Network300.node260 	number_of_desired_resources 	20
scalar Network300.node260 	query_homogenity_rate 	33.333333333333
scalar Network300.node260 	qrecord_time 	10837.035062504
scalar Network300.node260 	discovery_resolution_rate 	66.666666666667
scalar Network300.node240 	rate_of_requesters 	1
scalar Network300.node240 	number_of_resources 	16500
scalar Network300.node240 	time_period 	5
scalar Network300.node240 	number_of_messages 	105
scalar Network300.node240 	discovery_latency 	1680
scalar Network300.node240 	number_of_desired_resources 	20
scalar Network300.node240 	query_homogenity_rate 	33.333333333333
scalar Network300.node240 	qrecord_time 	10984.537793414
scalar Network300.node240 	discovery_resolution_rate 	66.666666666667
scalar Network300.node250 	rate_of_requesters 	1
scalar Network300.node250 	number_of_resources 	16500
scalar Network300.node250 	time_period 	2
scalar Network300.node250 	number_of_messages 	13
scalar Network300.node250 	discovery_latency 	1548
scalar Network300.node250 	number_of_desired_resources 	20
scalar Network300.node250 	query_homogenity_rate 	33.333333333333
scalar Network300.node250 	qrecord_time 	10999.307547908
scalar Network300.node250 	discovery_resolution_rate 	66.666666666667
scalar Network300.node200 	rate_of_requesters 	1
scalar Network300.node200 	number_of_resources 	16500
scalar Network300.node200 	time_period 	3
scalar Network300.node200 	number_of_messages 	28
scalar Network300.node200 	discovery_latency 	2004
scalar Network300.node200 	number_of_desired_resources 	20
scalar Network300.node200 	query_homogenity_rate 	33.333333333333
scalar Network300.node200 	qrecord_time 	11523.875434129
scalar Network300.node200 	discovery_resolution_rate 	33.333333333333
scalar Network300.node140 	rate_of_requesters 	1
scalar Network300.node140 	number_of_resources 	16500
scalar Network300.node140 	time_period 	3
scalar Network300.node140 	number_of_messages 	49
scalar Network300.node140 	discovery_latency 	456
scalar Network300.node140 	number_of_desired_resources 	20
scalar Network300.node140 	query_homogenity_rate 	33.333333333333
scalar Network300.node140 	qrecord_time 	11546.51477467
scalar Network300.node140 	discovery_resolution_rate 	100
scalar Network300.node210 	rate_of_requesters 	1
scalar Network300.node210 	number_of_resources 	16500
scalar Network300.node210 	time_period 	3
scalar Network300.node210 	number_of_messages 	112
scalar Network300.node210 	discovery_latency 	1716
scalar Network300.node210 	number_of_desired_resources 	20
scalar Network300.node210 	query_homogenity_rate 	33.333333333333
scalar Network300.node210 	qrecord_time 	11677.030191599
scalar Network300.node210 	discovery_resolution_rate 	66.666666666667
scalar Network300.node280 	rate_of_requesters 	1
scalar Network300.node280 	number_of_resources 	16500
scalar Network300.node280 	time_period 	3
scalar Network300.node280 	number_of_messages 	132
scalar Network300.node280 	discovery_latency 	2112
scalar Network300.node280 	number_of_desired_resources 	20
scalar Network300.node280 	query_homogenity_rate 	33.333333333333
scalar Network300.node280 	qrecord_time 	11855.039453174
scalar Network300.node280 	discovery_resolution_rate 	50
scalar Network300.node200 	rate_of_requesters 	1
scalar Network300.node200 	number_of_resources 	16500
scalar Network300.node200 	time_period 	4
scalar Network300.node200 	number_of_messages 	28
scalar Network300.node200 	discovery_latency 	1980
scalar Network300.node200 	number_of_desired_resources 	20
scalar Network300.node200 	query_homogenity_rate 	33.333333333333
scalar Network300.node200 	qrecord_time 	11862.226197571
scalar Network300.node200 	discovery_resolution_rate 	33.333333333333
scalar Network300.node90 	rate_of_requesters 	1
scalar Network300.node90 	number_of_resources 	16500
scalar Network300.node90 	time_period 	4
scalar Network300.node90 	number_of_messages 	20
scalar Network300.node90 	discovery_latency 	1668
scalar Network300.node90 	number_of_desired_resources 	20
scalar Network300.node90 	query_homogenity_rate 	33.333333333333
scalar Network300.node90 	qrecord_time 	11981.2846045
scalar Network300.node90 	discovery_resolution_rate 	66.666666666667
scalar Network300.node200 	rate_of_requesters 	1
scalar Network300.node200 	number_of_resources 	16500
scalar Network300.node200 	time_period 	5
scalar Network300.node200 	number_of_messages 	14
scalar Network300.node200 	discovery_latency 	1668
scalar Network300.node200 	number_of_desired_resources 	20
scalar Network300.node200 	query_homogenity_rate 	33.333333333333
scalar Network300.node200 	qrecord_time 	12094.591889498
scalar Network300.node200 	discovery_resolution_rate 	66.666666666667
scalar Network300.node80 	rate_of_requesters 	1
scalar Network300.node80 	number_of_resources 	16500
scalar Network300.node80 	time_period 	3
scalar Network300.node80 	number_of_messages 	124
scalar Network300.node80 	discovery_latency 	1620
scalar Network300.node80 	number_of_desired_resources 	20
scalar Network300.node80 	query_homogenity_rate 	33.333333333333
scalar Network300.node80 	qrecord_time 	12365.098225707
scalar Network300.node80 	discovery_resolution_rate 	83.333333333333
scalar Network300.node270 	rate_of_requesters 	1
scalar Network300.node270 	number_of_resources 	16500
scalar Network300.node270 	time_period 	2
scalar Network300.node270 	number_of_messages 	27
scalar Network300.node270 	discovery_latency 	1776
scalar Network300.node270 	number_of_desired_resources 	20
scalar Network300.node270 	query_homogenity_rate 	33.333333333333
scalar Network300.node270 	qrecord_time 	12791.537830245
scalar Network300.node270 	discovery_resolution_rate 	66.666666666667
scalar Network300.node170 	rate_of_requesters 	1
scalar Network300.node170 	number_of_resources 	16500
scalar Network300.node170 	time_period 	4
scalar Network300.node170 	number_of_messages 	12
scalar Network300.node170 	discovery_latency 	1680
scalar Network300.node170 	number_of_desired_resources 	20
scalar Network300.node170 	query_homogenity_rate 	33.333333333333
scalar Network300.node170 	qrecord_time 	12923.397077535
scalar Network300.node170 	discovery_resolution_rate 	66.666666666667
scalar Network300.node40 	rate_of_requesters 	1
scalar Network300.node40 	number_of_resources 	16500
scalar Network300.node40 	time_period 	5
scalar Network300.node40 	number_of_messages 	31
scalar Network300.node40 	discovery_latency 	1716
scalar Network300.node40 	number_of_desired_resources 	20
scalar Network300.node40 	query_homogenity_rate 	33.333333333333
scalar Network300.node40 	qrecord_time 	13203.673810041
scalar Network300.node40 	discovery_resolution_rate 	66.666666666667
scalar Network300.node90 	rate_of_requesters 	1
scalar Network300.node90 	number_of_resources 	16500
scalar Network300.node90 	time_period 	6
scalar Network300.node90 	number_of_messages 	74
scalar Network300.node90 	discovery_latency 	504
scalar Network300.node90 	number_of_desired_resources 	20
scalar Network300.node90 	query_homogenity_rate 	33.333333333333
scalar Network300.node90 	qrecord_time 	13225.194593527
scalar Network300.node90 	discovery_resolution_rate 	100
scalar Network300.node230 	rate_of_requesters 	1
scalar Network300.node230 	number_of_resources 	16500
scalar Network300.node230 	time_period 	2
scalar Network300.node230 	number_of_messages 	99
scalar Network300.node230 	discovery_latency 	1680
scalar Network300.node230 	number_of_desired_resources 	20
scalar Network300.node230 	query_homogenity_rate 	33.333333333333
scalar Network300.node230 	qrecord_time 	13236.700464762
scalar Network300.node230 	discovery_resolution_rate 	83.333333333333
scalar Network300.node210 	rate_of_requesters 	1
scalar Network300.node210 	number_of_resources 	16500
scalar Network300.node210 	time_period 	5
scalar Network300.node210 	number_of_messages 	38
scalar Network300.node210 	discovery_latency 	432
scalar Network300.node210 	number_of_desired_resources 	20
scalar Network300.node210 	query_homogenity_rate 	33.333333333333
scalar Network300.node210 	qrecord_time 	13418.994840608
scalar Network300.node210 	discovery_resolution_rate 	100
scalar Network300.node220 	rate_of_requesters 	1
scalar Network300.node220 	number_of_resources 	16500
scalar Network300.node220 	time_period 	3
scalar Network300.node220 	number_of_messages 	57
scalar Network300.node220 	discovery_latency 	1728
scalar Network300.node220 	number_of_desired_resources 	20
scalar Network300.node220 	query_homogenity_rate 	33.333333333333
scalar Network300.node220 	qrecord_time 	13519.872941893
scalar Network300.node220 	discovery_resolution_rate 	66.666666666667
scalar Network300.node140 	rate_of_requesters 	1
scalar Network300.node140 	number_of_resources 	16500
scalar Network300.node140 	time_period 	4
scalar Network300.node140 	number_of_messages 	61
scalar Network300.node140 	discovery_latency 	1764
scalar Network300.node140 	number_of_desired_resources 	20
scalar Network300.node140 	query_homogenity_rate 	33.333333333333
scalar Network300.node140 	qrecord_time 	13577.79156979
scalar Network300.node140 	discovery_resolution_rate 	66.666666666667
scalar Network300.node110 	rate_of_requesters 	1
scalar Network300.node110 	number_of_resources 	16500
scalar Network300.node110 	time_period 	4
scalar Network300.node110 	number_of_messages 	47
scalar Network300.node110 	discovery_latency 	1716
scalar Network300.node110 	number_of_desired_resources 	20
scalar Network300.node110 	query_homogenity_rate 	33.333333333333
scalar Network300.node110 	qrecord_time 	13770.156941024
scalar Network300.node110 	discovery_resolution_rate 	66.666666666667
scalar Network300.node290 	rate_of_requesters 	1
scalar Network300.node290 	number_of_resources 	16500
scalar Network300.node290 	time_period 	4
scalar Network300.node290 	number_of_messages 	31
scalar Network300.node290 	discovery_latency 	1728
scalar Network300.node290 	number_of_desired_resources 	20
scalar Network300.node290 	query_homogenity_rate 	33.333333333333
scalar Network300.node290 	qrecord_time 	13840.371971125
scalar Network300.node290 	discovery_resolution_rate 	66.666666666667
scalar Network300.node180 	rate_of_requesters 	1
scalar Network300.node180 	number_of_resources 	16500
scalar Network300.node180 	time_period 	3
scalar Network300.node180 	number_of_messages 	16
scalar Network300.node180 	discovery_latency 	1680
scalar Network300.node180 	number_of_desired_resources 	20
scalar Network300.node180 	query_homogenity_rate 	33.333333333333
scalar Network300.node180 	qrecord_time 	13910.693490475
scalar Network300.node180 	discovery_resolution_rate 	66.666666666667
scalar Network300.node270 	rate_of_requesters 	1
scalar Network300.node270 	number_of_resources 	16500
scalar Network300.node270 	time_period 	3
scalar Network300.node270 	number_of_messages 	142
scalar Network300.node270 	discovery_latency 	2004
scalar Network300.node270 	number_of_desired_resources 	20
scalar Network300.node270 	query_homogenity_rate 	33.333333333333
scalar Network300.node270 	qrecord_time 	13931.726400837
scalar Network300.node270 	discovery_resolution_rate 	50
scalar Network300.node100 	rate_of_requesters 	1
scalar Network300.node100 	number_of_resources 	16500
scalar Network300.node100 	time_period 	2
scalar Network300.node100 	number_of_messages 	30
scalar Network300.node100 	discovery_latency 	2124
scalar Network300.node100 	number_of_desired_resources 	20
scalar Network300.node100 	query_homogenity_rate 	33.333333333333
scalar Network300.node100 	qrecord_time 	14072.600525019
scalar Network300.node100 	discovery_resolution_rate 	33.333333333333
scalar Network300.node190 	rate_of_requesters 	1
scalar Network300.node190 	number_of_resources 	16500
scalar Network300.node190 	time_period 	3
scalar Network300.node190 	number_of_messages 	46
scalar Network300.node190 	discovery_latency 	1692
scalar Network300.node190 	number_of_desired_resources 	20
scalar Network300.node190 	query_homogenity_rate 	33.333333333333
scalar Network300.node190 	qrecord_time 	14174.001620161
scalar Network300.node190 	discovery_resolution_rate 	66.666666666667
scalar Network300.node0 	rate_of_requesters 	1
scalar Network300.node0 	number_of_resources 	16500
scalar Network300.node0 	time_period 	3
scalar Network300.node0 	number_of_messages 	9
scalar Network300.node0 	discovery_latency 	1980
scalar Network300.node0 	number_of_desired_resources 	20
scalar Network300.node0 	query_homogenity_rate 	33.333333333333
scalar Network300.node0 	qrecord_time 	14221.823669894
scalar Network300.node0 	discovery_resolution_rate 	33.333333333333
scalar Network300.node210 	rate_of_requesters 	1
scalar Network300.node210 	number_of_resources 	16500
scalar Network300.node210 	time_period 	4
scalar Network300.node210 	number_of_messages 	21
scalar Network300.node210 	discovery_latency 	1968
scalar Network300.node210 	number_of_desired_resources 	20
scalar Network300.node210 	query_homogenity_rate 	33.333333333333
scalar Network300.node210 	qrecord_time 	14284.95208117
scalar Network300.node210 	discovery_resolution_rate 	33.333333333333
scalar Network300.node120 	rate_of_requesters 	1
scalar Network300.node120 	number_of_resources 	16500
scalar Network300.node120 	time_period 	2
scalar Network300.node120 	number_of_messages 	19
scalar Network300.node120 	discovery_latency 	2064
scalar Network300.node120 	number_of_desired_resources 	20
scalar Network300.node120 	query_homogenity_rate 	33.333333333333
scalar Network300.node120 	qrecord_time 	14329.279394812
scalar Network300.node120 	discovery_resolution_rate 	33.333333333333
scalar Network300.node90 	rate_of_requesters 	1
scalar Network300.node90 	number_of_resources 	16500
scalar Network300.node90 	time_period 	5
scalar Network300.node90 	number_of_messages 	144
scalar Network300.node90 	discovery_latency 	1884
scalar Network300.node90 	number_of_desired_resources 	20
scalar Network300.node90 	query_homogenity_rate 	33.333333333333
scalar Network300.node90 	qrecord_time 	14451.549913528
scalar Network300.node90 	discovery_resolution_rate 	66.666666666667
scalar Network300.node130 	rate_of_requesters 	1
scalar Network300.node130 	number_of_resources 	16500
scalar Network300.node130 	time_period 	2
scalar Network300.node130 	number_of_messages 	122
scalar Network300.node130 	discovery_latency 	2064
scalar Network300.node130 	number_of_desired_resources 	20
scalar Network300.node130 	query_homogenity_rate 	33.333333333333
scalar Network300.node130 	qrecord_time 	14484.610651632
scalar Network300.node130 	discovery_resolution_rate 	66.666666666667
scalar Network300.node220 	rate_of_requesters 	1
scalar Network300.node220 	number_of_resources 	16500
scalar Network300.node220 	time_period 	4
scalar Network300.node220 	number_of_messages 	27
scalar Network300.node220 	discovery_latency 	1968
scalar Network300.node220 	number_of_desired_resources 	20
scalar Network300.node220 	query_homogenity_rate 	33.333333333333
scalar Network300.node220 	qrecord_time 	14517.057877356
scalar Network300.node220 	discovery_resolution_rate 	33.333333333333
scalar Network300.node40 	rate_of_requesters 	1
scalar Network300.node40 	number_of_resources 	16500
scalar Network300.node40 	time_period 	6
scalar Network300.node40 	number_of_messages 	109
scalar Network300.node40 	discovery_latency 	2088
scalar Network300.node40 	number_of_desired_resources 	20
scalar Network300.node40 	query_homogenity_rate 	33.333333333333
scalar Network300.node40 	qrecord_time 	14702.443958854
scalar Network300.node40 	discovery_resolution_rate 	33.333333333333
scalar Network300.node190 	rate_of_requesters 	1
scalar Network300.node190 	number_of_resources 	16500
scalar Network300.node190 	time_period 	4
scalar Network300.node190 	number_of_messages 	27
scalar Network300.node190 	discovery_latency 	1680
scalar Network300.node190 	number_of_desired_resources 	20
scalar Network300.node190 	query_homogenity_rate 	33.333333333333
scalar Network300.node190 	qrecord_time 	14873.095585028
scalar Network300.node190 	discovery_resolution_rate 	66.666666666667
scalar Network300.node80 	rate_of_requesters 	1
scalar Network300.node80 	number_of_resources 	16500
scalar Network300.node80 	time_period 	5
scalar Network300.node80 	number_of_messages 	55
scalar Network300.node80 	discovery_latency 	1608
scalar Network300.node80 	number_of_desired_resources 	20
scalar Network300.node80 	query_homogenity_rate 	33.333333333333
scalar Network300.node80 	qrecord_time 	15001.281943759
scalar Network300.node80 	discovery_resolution_rate 	66.666666666667
scalar Network300.node240 	rate_of_requesters 	1
scalar Network300.node240 	number_of_resources 	16500
scalar Network300.node240 	time_period 	6
scalar Network300.node240 	number_of_messages 	16
scalar Network300.node240 	discovery_latency 	2004
scalar Network300.node240 	number_of_desired_resources 	20
scalar Network300.node240 	query_homogenity_rate 	33.333333333333
scalar Network300.node240 	qrecord_time 	15186.398821037
scalar Network300.node240 	discovery_resolution_rate 	33.333333333333
scalar Network300.node80 	rate_of_requesters 	1
scalar Network300.node80 	number_of_resources 	16500
scalar Network300.node80 	time_period 	4
scalar Network300.node80 	number_of_messages 	245
scalar Network300.node80 	discovery_latency 	1980
scalar Network300.node80 	number_of_desired_resources 	20
scalar Network300.node80 	query_homogenity_rate 	33.333333333333
scalar Network300.node80 	qrecord_time 	15241.788878236
scalar Network300.node80 	discovery_resolution_rate 	83.333333333333
scalar Network300.node110 	rate_of_requesters 	1
scalar Network300.node110 	number_of_resources 	16500
scalar Network300.node110 	time_period 	5
scalar Network300.node110 	number_of_messages 	12
scalar Network300.node110 	discovery_latency 	2076
scalar Network300.node110 	number_of_desired_resources 	20
scalar Network300.node110 	query_homogenity_rate 	33.333333333333
scalar Network300.node110 	qrecord_time 	15282.784542864
scalar Network300.node110 	discovery_resolution_rate 	33.333333333333
scalar Network300.node30 	rate_of_requesters 	1
scalar Network300.node30 	number_of_resources 	16500
scalar Network300.node30 	time_period 	3
scalar Network300.node30 	number_of_messages 	2
scalar Network300.node30 	discovery_latency 	2004
scalar Network300.node30 	number_of_desired_resources 	20
scalar Network300.node30 	query_homogenity_rate 	33.333333333333
scalar Network300.node30 	qrecord_time 	15452.274104545
scalar Network300.node30 	discovery_resolution_rate 	0
scalar Network300.node270 	rate_of_requesters 	1
scalar Network300.node270 	number_of_resources 	16500
scalar Network300.node270 	time_period 	4
scalar Network300.node270 	number_of_messages 	111
scalar Network300.node270 	discovery_latency 	2136
scalar Network300.node270 	number_of_desired_resources 	20
scalar Network300.node270 	query_homogenity_rate 	33.333333333333
scalar Network300.node270 	qrecord_time 	15498.374487878
scalar Network300.node270 	discovery_resolution_rate 	16.666666666667
scalar Network300.node50 	rate_of_requesters 	1
scalar Network300.node50 	number_of_resources 	16500
scalar Network300.node50 	time_period 	3
scalar Network300.node50 	number_of_messages 	2
scalar Network300.node50 	discovery_latency 	2004
scalar Network300.node50 	number_of_desired_resources 	20
scalar Network300.node50 	query_homogenity_rate 	33.333333333333
scalar Network300.node50 	qrecord_time 	15548.473881845
scalar Network300.node50 	discovery_resolution_rate 	0
scalar Network300.node80 	rate_of_requesters 	1
scalar Network300.node80 	number_of_resources 	16500
scalar Network300.node80 	time_period 	6
scalar Network300.node80 	number_of_messages 	23
scalar Network300.node80 	discovery_latency 	1968
scalar Network300.node80 	number_of_desired_resources 	20
scalar Network300.node80 	query_homogenity_rate 	33.333333333333
scalar Network300.node80 	qrecord_time 	15574.613813947
scalar Network300.node80 	discovery_resolution_rate 	33.333333333333
scalar Network300.node60 	rate_of_requesters 	1
scalar Network300.node60 	number_of_resources 	16500
scalar Network300.node60 	time_period 	4
scalar Network300.node60 	number_of_messages 	25
scalar Network300.node60 	discovery_latency 	2088
scalar Network300.node60 	number_of_desired_resources 	20
scalar Network300.node60 	query_homogenity_rate 	33.333333333333
scalar Network300.node60 	qrecord_time 	15655.490669346
scalar Network300.node60 	discovery_resolution_rate 	33.333333333333
scalar Network300.node0 	rate_of_requesters 	1
scalar Network300.node0 	number_of_resources 	16500
scalar Network300.node0 	time_period 	4
scalar Network300.node0 	number_of_messages 	21
scalar Network300.node0 	discovery_latency 	2028
scalar Network300.node0 	number_of_desired_resources 	20
scalar Network300.node0 	query_homogenity_rate 	33.333333333333
scalar Network300.node0 	qrecord_time 	15741.685587499
scalar Network300.node0 	discovery_resolution_rate 	33.333333333333
scalar Network300.node190 	rate_of_requesters 	1
scalar Network300.node190 	number_of_resources 	16500
scalar Network300.node190 	time_period 	5
scalar Network300.node190 	number_of_messages 	0
scalar Network300.node190 	discovery_latency 	2124
scalar Network300.node190 	number_of_desired_resources 	20
scalar Network300.node190 	query_homogenity_rate 	33.333333333333
scalar Network300.node190 	qrecord_time 	15749.522186328
scalar Network300.node190 	discovery_resolution_rate 	0
scalar Network300.node270 	rate_of_requesters 	1
scalar Network300.node270 	number_of_resources 	16500
scalar Network300.node270 	time_period 	5
scalar Network300.node270 	number_of_messages 	2
scalar Network300.node270 	discovery_latency 	2064
scalar Network300.node270 	number_of_desired_resources 	20
scalar Network300.node270 	query_homogenity_rate 	33.333333333333
scalar Network300.node270 	qrecord_time 	15780.70637907
scalar Network300.node270 	discovery_resolution_rate 	0
scalar Network300.node240 	rate_of_requesters 	1
scalar Network300.node240 	number_of_resources 	16500
scalar Network300.node240 	time_period 	7
scalar Network300.node240 	number_of_messages 	31
scalar Network300.node240 	discovery_latency 	360
scalar Network300.node240 	number_of_desired_resources 	20
scalar Network300.node240 	query_homogenity_rate 	33.333333333333
scalar Network300.node240 	qrecord_time 	15781.12922891
scalar Network300.node240 	discovery_resolution_rate 	100
scalar Network300.node10 	rate_of_requesters 	1
scalar Network300.node10 	number_of_resources 	16500
scalar Network300.node10 	time_period 	3
scalar Network300.node10 	number_of_messages 	52
scalar Network300.node10 	discovery_latency 	2124
scalar Network300.node10 	number_of_desired_resources 	20
scalar Network300.node10 	query_homogenity_rate 	33.333333333333
scalar Network300.node10 	qrecord_time 	15843.732862151
scalar Network300.node10 	discovery_resolution_rate 	33.333333333333
scalar Network300.node60 	rate_of_requesters 	1
scalar Network300.node60 	number_of_resources 	16500
scalar Network300.node60 	time_period 	5
scalar Network300.node60 	number_of_messages 	53
scalar Network300.node60 	discovery_latency 	1680
scalar Network300.node60 	number_of_desired_resources 	20
scalar Network300.node60 	query_homogenity_rate 	33.333333333333
scalar Network300.node60 	qrecord_time 	15985.278334621
scalar Network300.node60 	discovery_resolution_rate 	66.666666666667
scalar Network300.node260 	rate_of_requesters 	1
scalar Network300.node260 	number_of_resources 	16500
scalar Network300.node260 	time_period 	3
scalar Network300.node260 	number_of_messages 	53
scalar Network300.node260 	discovery_latency 	1728
scalar Network300.node260 	number_of_desired_resources 	20
scalar Network300.node260 	query_homogenity_rate 	33.333333333333
scalar Network300.node260 	qrecord_time 	16300.51227614
scalar Network300.node260 	discovery_resolution_rate 	66.666666666667
scalar Network300.node180 	rate_of_requesters 	1
scalar Network300.node180 	number_of_resources 	16500
scalar Network300.node180 	time_period 	4
scalar Network300.node180 	number_of_messages 	132
scalar Network300.node180 	discovery_latency 	2016
scalar Network300.node180 	number_of_desired_resources 	20
scalar Network300.node180 	query_homogenity_rate 	33.333333333333
scalar Network300.node180 	qrecord_time 	16314.657692029
scalar Network300.node180 	discovery_resolution_rate 	50
scalar Network300.node30 	rate_of_requesters 	1
scalar Network300.node30 	number_of_resources 	16500
scalar Network300.node30 	time_period 	4
scalar Network300.node30 	number_of_messages 	31
scalar Network300.node30 	discovery_latency 	252
scalar Network300.node30 	number_of_desired_resources 	20
scalar Network300.node30 	query_homogenity_rate 	33.333333333333
scalar Network300.node30 	qrecord_time 	16471.048429653
scalar Network300.node30 	discovery_resolution_rate 	100
scalar Network300.node220 	rate_of_requesters 	1
scalar Network300.node220 	number_of_resources 	16500
scalar Network300.node220 	time_period 	5
scalar Network300.node220 	number_of_messages 	231
scalar Network300.node220 	discovery_latency 	2064
scalar Network300.node220 	number_of_desired_resources 	20
scalar Network300.node220 	query_homogenity_rate 	33.333333333333
scalar Network300.node220 	qrecord_time 	16522.507784571
scalar Network300.node220 	discovery_resolution_rate 	50
scalar Network300.node170 	rate_of_requesters 	1
scalar Network300.node170 	number_of_resources 	16500
scalar Network300.node170 	time_period 	5
scalar Network300.node170 	number_of_messages 	5
scalar Network300.node170 	discovery_latency 	2004
scalar Network300.node170 	number_of_desired_resources 	20
scalar Network300.node170 	query_homogenity_rate 	33.333333333333
scalar Network300.node170 	qrecord_time 	16541.633385904
scalar Network300.node170 	discovery_resolution_rate 	33.333333333333
scalar Network300.node250 	rate_of_requesters 	1
scalar Network300.node250 	number_of_resources 	16500
scalar Network300.node250 	time_period 	3
scalar Network300.node250 	number_of_messages 	124
scalar Network300.node250 	discovery_latency 	2088
scalar Network300.node250 	number_of_desired_resources 	20
scalar Network300.node250 	query_homogenity_rate 	33.333333333333
scalar Network300.node250 	qrecord_time 	16782.166125511
scalar Network300.node250 	discovery_resolution_rate 	66.666666666667
scalar Network300.node150 	rate_of_requesters 	1
scalar Network300.node150 	number_of_resources 	16500
scalar Network300.node150 	time_period 	3
scalar Network300.node150 	number_of_messages 	139
scalar Network300.node150 	discovery_latency 	1920
scalar Network300.node150 	number_of_desired_resources 	20
scalar Network300.node150 	query_homogenity_rate 	33.333333333333
scalar Network300.node150 	qrecord_time 	16798.996023308
scalar Network300.node150 	discovery_resolution_rate 	66.666666666667
scalar Network300.node140 	rate_of_requesters 	1
scalar Network300.node140 	number_of_resources 	16500
scalar Network300.node140 	time_period 	5
scalar Network300.node140 	number_of_messages 	155
scalar Network300.node140 	discovery_latency 	2148
scalar Network300.node140 	number_of_desired_resources 	20
scalar Network300.node140 	query_homogenity_rate 	33.333333333333
scalar Network300.node140 	qrecord_time 	16839.45781642
scalar Network300.node140 	discovery_resolution_rate 	50
scalar Network300.node160 	rate_of_requesters 	1
scalar Network300.node160 	number_of_resources 	16500
scalar Network300.node160 	time_period 	3
scalar Network300.node160 	number_of_messages 	50
scalar Network300.node160 	discovery_latency 	2016
scalar Network300.node160 	number_of_desired_resources 	20
scalar Network300.node160 	query_homogenity_rate 	33.333333333333
scalar Network300.node160 	qrecord_time 	17290.277519801
scalar Network300.node160 	discovery_resolution_rate 	66.666666666667
scalar Network300.node40 	rate_of_requesters 	1
scalar Network300.node40 	number_of_resources 	16500
scalar Network300.node40 	time_period 	7
scalar Network300.node40 	number_of_messages 	49
scalar Network300.node40 	discovery_latency 	1752
scalar Network300.node40 	number_of_desired_resources 	20
scalar Network300.node40 	query_homogenity_rate 	33.333333333333
scalar Network300.node40 	qrecord_time 	17507.745994443
scalar Network300.node40 	discovery_resolution_rate 	66.666666666667
scalar Network300.node10 	rate_of_requesters 	1
scalar Network300.node10 	number_of_resources 	16500
scalar Network300.node10 	time_period 	4
scalar Network300.node10 	number_of_messages 	44
scalar Network300.node10 	discovery_latency 	1764
scalar Network300.node10 	number_of_desired_resources 	20
scalar Network300.node10 	query_homogenity_rate 	33.333333333333
scalar Network300.node10 	qrecord_time 	17572.289181707
scalar Network300.node10 	discovery_resolution_rate 	66.666666666667
scalar Network300.node200 	rate_of_requesters 	1
scalar Network300.node200 	number_of_resources 	16500
scalar Network300.node200 	time_period 	6
scalar Network300.node200 	number_of_messages 	34
scalar Network300.node200 	discovery_latency 	1728
scalar Network300.node200 	number_of_desired_resources 	20
scalar Network300.node200 	query_homogenity_rate 	33.333333333333
scalar Network300.node200 	qrecord_time 	17849.686675556
scalar Network300.node200 	discovery_resolution_rate 	66.666666666667
scalar Network300.node10 	rate_of_requesters 	1
scalar Network300.node10 	number_of_resources 	16500
scalar Network300.node10 	time_period 	5
scalar Network300.node10 	number_of_messages 	10
scalar Network300.node10 	discovery_latency 	1668
scalar Network300.node10 	number_of_desired_resources 	20
scalar Network300.node10 	query_homogenity_rate 	33.333333333333
scalar Network300.node10 	qrecord_time 	17871.153972459
scalar Network300.node10 	discovery_resolution_rate 	66.666666666667
scalar Network300.node250 	rate_of_requesters 	1
scalar Network300.node250 	number_of_resources 	16500
scalar Network300.node250 	time_period 	4
scalar Network300.node250 	number_of_messages 	21
scalar Network300.node250 	discovery_latency 	1668
scalar Network300.node250 	number_of_desired_resources 	20
scalar Network300.node250 	query_homogenity_rate 	33.333333333333
scalar Network300.node250 	qrecord_time 	17981.238775453
scalar Network300.node250 	discovery_resolution_rate 	66.666666666667
scalar Network300.node170 	rate_of_requesters 	1
scalar Network300.node170 	number_of_resources 	16500
scalar Network300.node170 	time_period 	6
scalar Network300.node170 	number_of_messages 	77
scalar Network300.node170 	discovery_latency 	660
scalar Network300.node170 	number_of_desired_resources 	20
scalar Network300.node170 	query_homogenity_rate 	33.333333333333
scalar Network300.node170 	qrecord_time 	18094.455064557
scalar Network300.node170 	discovery_resolution_rate 	100
scalar Network300.node190 	rate_of_requesters 	1
scalar Network300.node190 	number_of_resources 	16500
scalar Network300.node190 	time_period 	6
scalar Network300.node190 	number_of_messages 	28
scalar Network300.node190 	discovery_latency 	1728
scalar Network300.node190 	number_of_desired_resources 	20
scalar Network300.node190 	query_homogenity_rate 	33.333333333333
scalar Network300.node190 	qrecord_time 	18307.195343614
scalar Network300.node190 	discovery_resolution_rate 	66.666666666667
scalar Network300.node40 	rate_of_requesters 	1
scalar Network300.node40 	number_of_resources 	16500
scalar Network300.node40 	time_period 	8
scalar Network300.node40 	number_of_messages 	9
scalar Network300.node40 	discovery_latency 	1728
scalar Network300.node40 	number_of_desired_resources 	20
scalar Network300.node40 	query_homogenity_rate 	33.333333333333
scalar Network300.node40 	qrecord_time 	18617.400033524
scalar Network300.node40 	discovery_resolution_rate 	66.666666666667
scalar Network300.node290 	rate_of_requesters 	1
scalar Network300.node290 	number_of_resources 	16500
scalar Network300.node290 	time_period 	5
scalar Network300.node290 	number_of_messages 	30
scalar Network300.node290 	discovery_latency 	1656
scalar Network300.node290 	number_of_desired_resources 	20
scalar Network300.node290 	query_homogenity_rate 	33.333333333333
scalar Network300.node290 	qrecord_time 	18698.944353507
scalar Network300.node290 	discovery_resolution_rate 	66.666666666667
scalar Network300.node30 	rate_of_requesters 	1
scalar Network300.node30 	number_of_resources 	16500
scalar Network300.node30 	time_period 	5
scalar Network300.node30 	number_of_messages 	19
scalar Network300.node30 	discovery_latency 	1704
scalar Network300.node30 	number_of_desired_resources 	20
scalar Network300.node30 	query_homogenity_rate 	33.333333333333
scalar Network300.node30 	qrecord_time 	18835.301797849
scalar Network300.node30 	discovery_resolution_rate 	66.666666666667
scalar Network300.node220 	rate_of_requesters 	1
scalar Network300.node220 	number_of_resources 	16500
scalar Network300.node220 	time_period 	6
scalar Network300.node220 	number_of_messages 	32
scalar Network300.node220 	discovery_latency 	1680
scalar Network300.node220 	number_of_desired_resources 	20
scalar Network300.node220 	query_homogenity_rate 	33.333333333333
scalar Network300.node220 	qrecord_time 	18963.80126653
scalar Network300.node220 	discovery_resolution_rate 	66.666666666667
scalar Network300.node150 	rate_of_requesters 	1
scalar Network300.node150 	number_of_resources 	16500
scalar Network300.node150 	time_period 	4
scalar Network300.node150 	number_of_messages 	64
scalar Network300.node150 	discovery_latency 	516
scalar Network300.node150 	number_of_desired_resources 	20
scalar Network300.node150 	query_homogenity_rate 	33.333333333333
scalar Network300.node150 	qrecord_time 	19027.319888011
scalar Network300.node150 	discovery_resolution_rate 	100
scalar Network300.node210 	rate_of_requesters 	1
scalar Network300.node210 	number_of_resources 	16500
scalar Network300.node210 	time_period 	6
scalar Network300.node210 	number_of_messages 	143
scalar Network300.node210 	discovery_latency 	1764
scalar Network300.node210 	number_of_desired_resources 	20
scalar Network300.node210 	query_homogenity_rate 	33.333333333333
scalar Network300.node210 	qrecord_time 	19191.323487455
scalar Network300.node210 	discovery_resolution_rate 	83.333333333333
scalar Network300.node210 	rate_of_requesters 	1
scalar Network300.node210 	number_of_resources 	16500
scalar Network300.node210 	time_period 	7
scalar Network300.node210 	number_of_messages 	141
scalar Network300.node210 	discovery_latency 	1704
scalar Network300.node210 	number_of_desired_resources 	20
scalar Network300.node210 	query_homogenity_rate 	33.333333333333
scalar Network300.node210 	qrecord_time 	19338.569723645
scalar Network300.node210 	discovery_resolution_rate 	83.333333333333
scalar Network300.node80 	rate_of_requesters 	1
scalar Network300.node80 	number_of_resources 	16500
scalar Network300.node80 	time_period 	7
scalar Network300.node80 	number_of_messages 	100
scalar Network300.node80 	discovery_latency 	1632
scalar Network300.node80 	number_of_desired_resources 	20
scalar Network300.node80 	query_homogenity_rate 	33.333333333333
scalar Network300.node80 	qrecord_time 	19541.074025417
scalar Network300.node80 	discovery_resolution_rate 	83.333333333333
scalar Network300.node120 	rate_of_requesters 	1
scalar Network300.node120 	number_of_resources 	16500
scalar Network300.node120 	time_period 	3
scalar Network300.node120 	number_of_messages 	17
scalar Network300.node120 	discovery_latency 	1644
scalar Network300.node120 	number_of_desired_resources 	20
scalar Network300.node120 	query_homogenity_rate 	33.333333333333
scalar Network300.node120 	qrecord_time 	19561.910414823
scalar Network300.node120 	discovery_resolution_rate 	66.666666666667
scalar Network300.node260 	rate_of_requesters 	1
scalar Network300.node260 	number_of_resources 	16500
scalar Network300.node260 	time_period 	4
scalar Network300.node260 	number_of_messages 	101
scalar Network300.node260 	discovery_latency 	1656
scalar Network300.node260 	number_of_desired_resources 	20
scalar Network300.node260 	query_homogenity_rate 	33.333333333333
scalar Network300.node260 	qrecord_time 	19591.687095363
scalar Network300.node260 	discovery_resolution_rate 	83.333333333333
scalar Network300.node70 	rate_of_requesters 	1
scalar Network300.node70 	number_of_resources 	16500
scalar Network300.node70 	time_period 	4
scalar Network300.node70 	number_of_messages 	52
scalar Network300.node70 	discovery_latency 	1680
scalar Network300.node70 	number_of_desired_resources 	20
scalar Network300.node70 	query_homogenity_rate 	33.333333333333
scalar Network300.node70 	qrecord_time 	19665.719383985
scalar Network300.node70 	discovery_resolution_rate 	66.666666666667
scalar Network300.node10 	rate_of_requesters 	1
scalar Network300.node10 	number_of_resources 	16500
scalar Network300.node10 	time_period 	6
scalar Network300.node10 	number_of_messages 	41
scalar Network300.node10 	discovery_latency 	1728
scalar Network300.node10 	number_of_desired_resources 	20
scalar Network300.node10 	query_homogenity_rate 	33.333333333333
scalar Network300.node10 	qrecord_time 	19729.181155534
scalar Network300.node10 	discovery_resolution_rate 	66.666666666667
scalar Network300.node50 	rate_of_requesters 	1
scalar Network300.node50 	number_of_resources 	16500
scalar Network300.node50 	time_period 	4
scalar Network300.node50 	number_of_messages 	23
scalar Network300.node50 	discovery_latency 	1644
scalar Network300.node50 	number_of_desired_resources 	20
scalar Network300.node50 	query_homogenity_rate 	33.333333333333
scalar Network300.node50 	qrecord_time 	20047.033953135
scalar Network300.node50 	discovery_resolution_rate 	66.666666666667
scalar Network300.node160 	rate_of_requesters 	1
scalar Network300.node160 	number_of_resources 	16500
scalar Network300.node160 	time_period 	4
scalar Network300.node160 	number_of_messages 	51
scalar Network300.node160 	discovery_latency 	552
scalar Network300.node160 	number_of_desired_resources 	20
scalar Network300.node160 	query_homogenity_rate 	33.333333333333
scalar Network300.node160 	qrecord_time 	20053.838988328
scalar Network300.node160 	discovery_resolution_rate 	100
scalar Network300.node140 	rate_of_requesters 	1
scalar Network300.node140 	number_of_resources 	16500
scalar Network300.node140 	time_period 	6
scalar Network300.node140 	number_of_messages 	130
scalar Network300.node140 	discovery_latency 	2172
scalar Network300.node140 	number_of_desired_resources 	20
scalar Network300.node140 	query_homogenity_rate 	33.333333333333
scalar Network300.node140 	qrecord_time 	20182.645220602
scalar Network300.node140 	discovery_resolution_rate 	50
scalar Network300.node200 	rate_of_requesters 	1
scalar Network300.node200 	number_of_resources 	16500
scalar Network300.node200 	time_period 	7
scalar Network300.node200 	number_of_messages 	129
scalar Network300.node200 	discovery_latency 	1908
scalar Network300.node200 	number_of_desired_resources 	20
scalar Network300.node200 	query_homogenity_rate 	33.333333333333
scalar Network300.node200 	qrecord_time 	20191.100602087
scalar Network300.node200 	discovery_resolution_rate 	50
scalar Network300.node70 	rate_of_requesters 	1
scalar Network300.node70 	number_of_resources 	16500
scalar Network300.node70 	time_period 	5
scalar Network300.node70 	number_of_messages 	34
scalar Network300.node70 	discovery_latency 	384
scalar Network300.node70 	number_of_desired_resources 	20
scalar Network300.node70 	query_homogenity_rate 	33.333333333333
scalar Network300.node70 	qrecord_time 	20911.72478877
scalar Network300.node70 	discovery_resolution_rate 	100
scalar Network300.node270 	rate_of_requesters 	1
scalar Network300.node270 	number_of_resources 	16500
scalar Network300.node270 	time_period 	6
scalar Network300.node270 	number_of_messages 	71
scalar Network300.node270 	discovery_latency 	972
scalar Network300.node270 	number_of_desired_resources 	20
scalar Network300.node270 	query_homogenity_rate 	33.333333333333
scalar Network300.node270 	qrecord_time 	20994.383744199
scalar Network300.node270 	discovery_resolution_rate 	100
scalar Network300.node0 	rate_of_requesters 	1
scalar Network300.node0 	number_of_resources 	16500
scalar Network300.node0 	time_period 	5
scalar Network300.node0 	number_of_messages 	19
scalar Network300.node0 	discovery_latency 	1800
scalar Network300.node0 	number_of_desired_resources 	20
scalar Network300.node0 	query_homogenity_rate 	33.333333333333
scalar Network300.node0 	qrecord_time 	20999.842792537
scalar Network300.node0 	discovery_resolution_rate 	66.666666666667
scalar Network300.node50 	rate_of_requesters 	1
scalar Network300.node50 	number_of_resources 	16500
scalar Network300.node50 	time_period 	5
scalar Network300.node50 	number_of_messages 	24
scalar Network300.node50 	discovery_latency 	1572
scalar Network300.node50 	number_of_desired_resources 	20
scalar Network300.node50 	query_homogenity_rate 	33.333333333333
scalar Network300.node50 	qrecord_time 	21048.261888688
scalar Network300.node50 	discovery_resolution_rate 	66.666666666667
scalar Network300.node220 	rate_of_requesters 	1
scalar Network300.node220 	number_of_resources 	16500
scalar Network300.node220 	time_period 	7
scalar Network300.node220 	number_of_messages 	28
scalar Network300.node220 	discovery_latency 	1728
scalar Network300.node220 	number_of_desired_resources 	20
scalar Network300.node220 	query_homogenity_rate 	33.333333333333
scalar Network300.node220 	qrecord_time 	21192.076913477
scalar Network300.node220 	discovery_resolution_rate 	66.666666666667
scalar Network300.node80 	rate_of_requesters 	1
scalar Network300.node80 	number_of_resources 	16500
scalar Network300.node80 	time_period 	8
scalar Network300.node80 	number_of_messages 	42
scalar Network300.node80 	discovery_latency 	1608
scalar Network300.node80 	number_of_desired_resources 	20
scalar Network300.node80 	query_homogenity_rate 	33.333333333333
scalar Network300.node80 	qrecord_time 	21402.011286308
scalar Network300.node80 	discovery_resolution_rate 	66.666666666667
scalar Network300.node10 	rate_of_requesters 	1
scalar Network300.node10 	number_of_resources 	16500
scalar Network300.node10 	time_period 	7
scalar Network300.node10 	number_of_messages 	44
scalar Network300.node10 	discovery_latency 	1632
scalar Network300.node10 	number_of_desired_resources 	20
scalar Network300.node10 	query_homogenity_rate 	33.333333333333
scalar Network300.node10 	qrecord_time 	21470.858743777
scalar Network300.node10 	discovery_resolution_rate 	66.666666666667
scalar Network300.node220 	rate_of_requesters 	1
scalar Network300.node220 	number_of_resources 	16500
scalar Network300.node220 	time_period 	8
scalar Network300.node220 	number_of_messages 	48
scalar Network300.node220 	discovery_latency 	1716
scalar Network300.node220 	number_of_desired_resources 	20
scalar Network300.node220 	query_homogenity_rate 	33.333333333333
scalar Network300.node220 	qrecord_time 	21851.057298747
scalar Network300.node220 	discovery_resolution_rate 	66.666666666667
scalar Network300.node230 	rate_of_requesters 	1
scalar Network300.node230 	number_of_resources 	16500
scalar Network300.node230 	time_period 	3
scalar Network300.node230 	number_of_messages 	20
scalar Network300.node230 	discovery_latency 	1656
scalar Network300.node230 	number_of_desired_resources 	20
scalar Network300.node230 	query_homogenity_rate 	33.333333333333
scalar Network300.node230 	qrecord_time 	21911.287633085
scalar Network300.node230 	discovery_resolution_rate 	66.666666666667
scalar Network300.node10 	rate_of_requesters 	1
scalar Network300.node10 	number_of_resources 	16500
scalar Network300.node10 	time_period 	8
scalar Network300.node10 	number_of_messages 	10
scalar Network300.node10 	discovery_latency 	1644
scalar Network300.node10 	number_of_desired_resources 	20
scalar Network300.node10 	query_homogenity_rate 	33.333333333333
scalar Network300.node10 	qrecord_time 	21954.276413551
scalar Network300.node10 	discovery_resolution_rate 	66.666666666667
scalar Network300.node230 	rate_of_requesters 	1
scalar Network300.node230 	number_of_resources 	16500
scalar Network300.node230 	time_period 	4
scalar Network300.node230 	number_of_messages 	107
scalar Network300.node230 	discovery_latency 	1644
scalar Network300.node230 	number_of_desired_resources 	20
scalar Network300.node230 	query_homogenity_rate 	33.333333333333
scalar Network300.node230 	qrecord_time 	22040.427237306
scalar Network300.node230 	discovery_resolution_rate 	66.666666666667
scalar Network300.node0 	rate_of_requesters 	1
scalar Network300.node0 	number_of_resources 	16500
scalar Network300.node0 	time_period 	6
scalar Network300.node0 	number_of_messages 	26
scalar Network300.node0 	discovery_latency 	1728
scalar Network300.node0 	number_of_desired_resources 	20
scalar Network300.node0 	query_homogenity_rate 	33.333333333333
scalar Network300.node0 	qrecord_time 	22216.096683384
scalar Network300.node0 	discovery_resolution_rate 	66.666666666667
scalar Network300.node100 	rate_of_requesters 	1
scalar Network300.node100 	number_of_resources 	16500
scalar Network300.node100 	time_period 	3
scalar Network300.node100 	number_of_messages 	16
scalar Network300.node100 	discovery_latency 	1644
scalar Network300.node100 	number_of_desired_resources 	20
scalar Network300.node100 	query_homogenity_rate 	33.333333333333
scalar Network300.node100 	qrecord_time 	22438.206831751
scalar Network300.node100 	discovery_resolution_rate 	66.666666666667
scalar Network300.node50 	rate_of_requesters 	1
scalar Network300.node50 	number_of_resources 	16500
scalar Network300.node50 	time_period 	6
scalar Network300.node50 	number_of_messages 	36
scalar Network300.node50 	discovery_latency 	384
scalar Network300.node50 	number_of_desired_resources 	20
scalar Network300.node50 	query_homogenity_rate 	33.333333333333
scalar Network300.node50 	qrecord_time 	22763.018837387
scalar Network300.node50 	discovery_resolution_rate 	100
scalar Network300.node260 	rate_of_requesters 	1
scalar Network300.node260 	number_of_resources 	16500
scalar Network300.node260 	time_period 	5
scalar Network300.node260 	number_of_messages 	15
scalar Network300.node260 	discovery_latency 	1728
scalar Network300.node260 	number_of_desired_resources 	20
scalar Network300.node260 	query_homogenity_rate 	33.333333333333
scalar Network300.node260 	qrecord_time 	22810.357234353
scalar Network300.node260 	discovery_resolution_rate 	66.666666666667
scalar Network300.node270 	rate_of_requesters 	1
scalar Network300.node270 	number_of_resources 	16500
scalar Network300.node270 	time_period 	7
scalar Network300.node270 	number_of_messages 	53
scalar Network300.node270 	discovery_latency 	336
scalar Network300.node270 	number_of_desired_resources 	20
scalar Network300.node270 	query_homogenity_rate 	33.333333333333
scalar Network300.node270 	qrecord_time 	22934.098596912
scalar Network300.node270 	discovery_resolution_rate 	100
scalar Network300.node170 	rate_of_requesters 	1
scalar Network300.node170 	number_of_resources 	16500
scalar Network300.node170 	time_period 	7
scalar Network300.node170 	number_of_messages 	101
scalar Network300.node170 	discovery_latency 	1716
scalar Network300.node170 	number_of_desired_resources 	20
scalar Network300.node170 	query_homogenity_rate 	33.333333333333
scalar Network300.node170 	qrecord_time 	23050.521679596
scalar Network300.node170 	discovery_resolution_rate 	83.333333333333
scalar Network300.node200 	rate_of_requesters 	1
scalar Network300.node200 	number_of_resources 	16500
scalar Network300.node200 	time_period 	8
scalar Network300.node200 	number_of_messages 	34
scalar Network300.node200 	discovery_latency 	1656
scalar Network300.node200 	number_of_desired_resources 	20
scalar Network300.node200 	query_homogenity_rate 	33.333333333333
scalar Network300.node200 	qrecord_time 	23172.8249453
scalar Network300.node200 	discovery_resolution_rate 	66.666666666667
scalar Network300.node210 	rate_of_requesters 	1
scalar Network300.node210 	number_of_resources 	16500
scalar Network300.node210 	time_period 	8
scalar Network300.node210 	number_of_messages 	134
scalar Network300.node210 	discovery_latency 	1764
scalar Network300.node210 	number_of_desired_resources 	20
[...]
scalar Network300.node100 	number_of_resources 	16500
scalar Network300.node100 	time_period 	9
scalar Network300.node100 	number_of_messages 	39
scalar Network300.node100 	discovery_latency 	1728
scalar Network300.node100 	number_of_desired_resources 	20
scalar Network300.node100 	query_homogenity_rate 	33.333333333333
scalar Network300.node100 	qrecord_time 	38702.334098631
scalar Network300.node100 	discovery_resolution_rate 	66.666666666667
scalar Network300.node70 	rate_of_requesters 	1
scalar Network300.node70 	number_of_resources 	16500
scalar Network300.node70 	time_period 	10
scalar Network300.node70 	number_of_messages 	21
scalar Network300.node70 	discovery_latency 	168
scalar Network300.node70 	number_of_desired_resources 	20
scalar Network300.node70 	query_homogenity_rate 	33.333333333333
scalar Network300.node70 	qrecord_time 	38706.359876176
scalar Network300.node70 	discovery_resolution_rate 	100
scalar Network300.node120 	rate_of_requesters 	1
scalar Network300.node120 	number_of_resources 	16500
scalar Network300.node120 	time_period 	9
scalar Network300.node120 	number_of_messages 	30
scalar Network300.node120 	discovery_latency 	1716
scalar Network300.node120 	number_of_desired_resources 	20
scalar Network300.node120 	query_homogenity_rate 	33.333333333333
scalar Network300.node120 	qrecord_time 	38726.764698775
scalar Network300.node120 	discovery_resolution_rate 	66.666666666667
scalar Network300.node280 	rate_of_requesters 	1
scalar Network300.node280 	number_of_resources 	16500
scalar Network300.node280 	time_period 	9
scalar Network300.node280 	number_of_messages 	45
scalar Network300.node280 	discovery_latency 	1692
scalar Network300.node280 	number_of_desired_resources 	20
scalar Network300.node280 	query_homogenity_rate 	33.333333333333
scalar Network300.node280 	qrecord_time 	39045.893706137
scalar Network300.node280 	discovery_resolution_rate 	66.666666666667
scalar Network300.node150 	rate_of_requesters 	1
scalar Network300.node150 	number_of_resources 	16500
scalar Network300.node150 	time_period 	6
scalar Network300.node150 	number_of_messages 	26
scalar Network300.node150 	discovery_latency 	1728
scalar Network300.node150 	number_of_desired_resources 	20
scalar Network300.node150 	query_homogenity_rate 	33.333333333333
scalar Network300.node150 	qrecord_time 	39047.458095824
scalar Network300.node150 	discovery_resolution_rate 	66.666666666667
scalar Network300.node70 	rate_of_requesters 	1
scalar Network300.node70 	number_of_resources 	16500
scalar Network300.node70 	time_period 	9
scalar Network300.node70 	number_of_messages 	28
scalar Network300.node70 	discovery_latency 	1812
scalar Network300.node70 	number_of_desired_resources 	20
scalar Network300.node70 	query_homogenity_rate 	33.333333333333
scalar Network300.node70 	qrecord_time 	39093.918669979
scalar Network300.node70 	discovery_resolution_rate 	66.666666666667
scalar Network300.node150 	rate_of_requesters 	1
scalar Network300.node150 	number_of_resources 	16500
scalar Network300.node150 	time_period 	8
scalar Network300.node150 	number_of_messages 	40
scalar Network300.node150 	discovery_latency 	348
scalar Network300.node150 	number_of_desired_resources 	20
scalar Network300.node150 	query_homogenity_rate 	33.333333333333
scalar Network300.node150 	qrecord_time 	39691.054240993
scalar Network300.node150 	discovery_resolution_rate 	100
scalar Network300.node180 	rate_of_requesters 	1
scalar Network300.node180 	number_of_resources 	16500
scalar Network300.node180 	time_period 	7
scalar Network300.node180 	number_of_messages 	124
scalar Network300.node180 	discovery_latency 	1704
scalar Network300.node180 	number_of_desired_resources 	20
scalar Network300.node180 	query_homogenity_rate 	33.333333333333
scalar Network300.node180 	qrecord_time 	39704.99966079
scalar Network300.node180 	discovery_resolution_rate 	83.333333333333
scalar Network300.node290 	rate_of_requesters 	1
scalar Network300.node290 	number_of_resources 	16500
scalar Network300.node290 	time_period 	10
scalar Network300.node290 	number_of_messages 	100
scalar Network300.node290 	discovery_latency 	1800
scalar Network300.node290 	number_of_desired_resources 	20
scalar Network300.node290 	query_homogenity_rate 	33.333333333333
scalar Network300.node290 	qrecord_time 	39865.704811379
scalar Network300.node290 	discovery_resolution_rate 	83.333333333333
scalar Network300.node180 	rate_of_requesters 	1
scalar Network300.node180 	number_of_resources 	16500
scalar Network300.node180 	time_period 	8
scalar Network300.node180 	number_of_messages 	29
scalar Network300.node180 	discovery_latency 	204
scalar Network300.node180 	number_of_desired_resources 	20
scalar Network300.node180 	query_homogenity_rate 	33.333333333333
scalar Network300.node180 	qrecord_time 	40037.654425419
scalar Network300.node180 	discovery_resolution_rate 	100
scalar Network300.node160 	rate_of_requesters 	1
scalar Network300.node160 	number_of_resources 	16500
scalar Network300.node160 	time_period 	10
scalar Network300.node160 	number_of_messages 	16
scalar Network300.node160 	discovery_latency 	1692
scalar Network300.node160 	number_of_desired_resources 	20
scalar Network300.node160 	query_homogenity_rate 	33.333333333333
scalar Network300.node160 	qrecord_time 	40435.160615597
scalar Network300.node160 	discovery_resolution_rate 	66.666666666667
scalar Network300.node150 	rate_of_requesters 	1
scalar Network300.node150 	number_of_resources 	16500
scalar Network300.node150 	time_period 	7
scalar Network300.node150 	number_of_messages 	26
scalar Network300.node150 	discovery_latency 	1704
scalar Network300.node150 	number_of_desired_resources 	20
scalar Network300.node150 	query_homogenity_rate 	33.333333333333
scalar Network300.node150 	qrecord_time 	40474.320525855
scalar Network300.node150 	discovery_resolution_rate 	66.666666666667
scalar Network300.node250 	rate_of_requesters 	1
scalar Network300.node250 	number_of_resources 	16500
scalar Network300.node250 	time_period 	10
scalar Network300.node250 	number_of_messages 	12
scalar Network300.node250 	discovery_latency 	1680
scalar Network300.node250 	number_of_desired_resources 	20
scalar Network300.node250 	query_homogenity_rate 	33.333333333333
scalar Network300.node250 	qrecord_time 	40583.879110438
scalar Network300.node250 	discovery_resolution_rate 	66.666666666667
scalar Network300.node20 	rate_of_requesters 	1
scalar Network300.node20 	number_of_resources 	16500
scalar Network300.node20 	time_period 	6
scalar Network300.node20 	number_of_messages 	16
scalar Network300.node20 	discovery_latency 	1668
scalar Network300.node20 	number_of_desired_resources 	20
scalar Network300.node20 	query_homogenity_rate 	33.333333333333
scalar Network300.node20 	qrecord_time 	40605.262188612
scalar Network300.node20 	discovery_resolution_rate 	66.666666666667
scalar Network300.node100 	rate_of_requesters 	1
scalar Network300.node100 	number_of_resources 	16500
scalar Network300.node100 	time_period 	10
scalar Network300.node100 	number_of_messages 	21
scalar Network300.node100 	discovery_latency 	168
scalar Network300.node100 	number_of_desired_resources 	20
scalar Network300.node100 	query_homogenity_rate 	33.333333333333
scalar Network300.node100 	qrecord_time 	40663.257004505
scalar Network300.node100 	discovery_resolution_rate 	100
scalar Network300.node270 	rate_of_requesters 	1
scalar Network300.node270 	number_of_resources 	16500
scalar Network300.node270 	time_period 	10
scalar Network300.node270 	number_of_messages 	36
scalar Network300.node270 	discovery_latency 	264
scalar Network300.node270 	number_of_desired_resources 	20
scalar Network300.node270 	query_homogenity_rate 	33.333333333333
scalar Network300.node270 	qrecord_time 	41475.706196723
scalar Network300.node270 	discovery_resolution_rate 	100
scalar Network300.node50 	rate_of_requesters 	1
scalar Network300.node50 	number_of_resources 	16500
scalar Network300.node50 	time_period 	9
scalar Network300.node50 	number_of_messages 	32
scalar Network300.node50 	discovery_latency 	252
scalar Network300.node50 	number_of_desired_resources 	20
scalar Network300.node50 	query_homogenity_rate 	33.333333333333
scalar Network300.node50 	qrecord_time 	41527.534613603
scalar Network300.node50 	discovery_resolution_rate 	100
scalar Network300.node20 	rate_of_requesters 	1
scalar Network300.node20 	number_of_resources 	16500
scalar Network300.node20 	time_period 	7
scalar Network300.node20 	number_of_messages 	26
scalar Network300.node20 	discovery_latency 	192
scalar Network300.node20 	number_of_desired_resources 	20
scalar Network300.node20 	query_homogenity_rate 	33.333333333333
scalar Network300.node20 	qrecord_time 	43081.557779486
scalar Network300.node20 	discovery_resolution_rate 	100
scalar Network300.node90 	rate_of_requesters 	1
scalar Network300.node90 	number_of_resources 	16500
scalar Network300.node90 	time_period 	10
scalar Network300.node90 	number_of_messages 	106
scalar Network300.node90 	discovery_latency 	1620
scalar Network300.node90 	number_of_desired_resources 	20
scalar Network300.node90 	query_homogenity_rate 	33.333333333333
scalar Network300.node90 	qrecord_time 	43909.703082693
scalar Network300.node90 	discovery_resolution_rate 	83.333333333333
scalar Network300.node20 	rate_of_requesters 	1
scalar Network300.node20 	number_of_resources 	16500
scalar Network300.node20 	time_period 	8
scalar Network300.node20 	number_of_messages 	19
scalar Network300.node20 	discovery_latency 	168
scalar Network300.node20 	number_of_desired_resources 	20
scalar Network300.node20 	query_homogenity_rate 	33.333333333333
scalar Network300.node20 	qrecord_time 	44674.071417073
scalar Network300.node20 	discovery_resolution_rate 	100
scalar Network300.node180 	rate_of_requesters 	1
scalar Network300.node180 	number_of_resources 	16500
scalar Network300.node180 	time_period 	9
scalar Network300.node180 	number_of_messages 	115
scalar Network300.node180 	discovery_latency 	1656
scalar Network300.node180 	number_of_desired_resources 	20
scalar Network300.node180 	query_homogenity_rate 	33.333333333333
scalar Network300.node180 	qrecord_time 	44746.960319717
scalar Network300.node180 	discovery_resolution_rate 	83.333333333333
scalar Network300.node150 	rate_of_requesters 	1
scalar Network300.node150 	number_of_resources 	16500
scalar Network300.node150 	time_period 	9
scalar Network300.node150 	number_of_messages 	33
scalar Network300.node150 	discovery_latency 	1656
scalar Network300.node150 	number_of_desired_resources 	20
scalar Network300.node150 	query_homogenity_rate 	33.333333333333
scalar Network300.node150 	qrecord_time 	44775.11401536
scalar Network300.node150 	discovery_resolution_rate 	66.666666666667
scalar Network300.node180 	rate_of_requesters 	1
scalar Network300.node180 	number_of_resources 	16500
scalar Network300.node180 	time_period 	10
scalar Network300.node180 	number_of_messages 	29
scalar Network300.node180 	discovery_latency 	204
scalar Network300.node180 	number_of_desired_resources 	20
scalar Network300.node180 	query_homogenity_rate 	33.333333333333
scalar Network300.node180 	qrecord_time 	44993.922427072
scalar Network300.node180 	discovery_resolution_rate 	100
scalar Network300.node110 	rate_of_requesters 	1
scalar Network300.node110 	number_of_resources 	16500
scalar Network300.node110 	time_period 	7
scalar Network300.node110 	number_of_messages 	16
scalar Network300.node110 	discovery_latency 	96.000000000004
scalar Network300.node110 	number_of_desired_resources 	20
scalar Network300.node110 	query_homogenity_rate 	33.333333333333
scalar Network300.node110 	qrecord_time 	45455.981053632
scalar Network300.node110 	discovery_resolution_rate 	100
scalar Network300.node280 	rate_of_requesters 	1
scalar Network300.node280 	number_of_resources 	16500
scalar Network300.node280 	time_period 	10
scalar Network300.node280 	number_of_messages 	29
scalar Network300.node280 	discovery_latency 	216
scalar Network300.node280 	number_of_desired_resources 	20
scalar Network300.node280 	query_homogenity_rate 	33.333333333333
scalar Network300.node280 	qrecord_time 	45520.753502621
scalar Network300.node280 	discovery_resolution_rate 	100
scalar Network300.node130 	rate_of_requesters 	1
scalar Network300.node130 	number_of_resources 	16500
scalar Network300.node130 	time_period 	4
scalar Network300.node130 	number_of_messages 	23
scalar Network300.node130 	discovery_latency 	150
scalar Network300.node130 	number_of_desired_resources 	20
scalar Network300.node130 	query_homogenity_rate 	33.333333333333
scalar Network300.node130 	qrecord_time 	46501.115345997
scalar Network300.node130 	discovery_resolution_rate 	100
scalar Network300.node110 	rate_of_requesters 	1
scalar Network300.node110 	number_of_resources 	16500
scalar Network300.node110 	time_period 	8
scalar Network300.node110 	number_of_messages 	32
scalar Network300.node110 	discovery_latency 	252
scalar Network300.node110 	number_of_desired_resources 	20
scalar Network300.node110 	query_homogenity_rate 	33.333333333333
scalar Network300.node110 	qrecord_time 	46907.415018373
scalar Network300.node110 	discovery_resolution_rate 	100
scalar Network300.node50 	rate_of_requesters 	1
scalar Network300.node50 	number_of_resources 	16500
scalar Network300.node50 	time_period 	10
scalar Network300.node50 	number_of_messages 	17
scalar Network300.node50 	discovery_latency 	108
scalar Network300.node50 	number_of_desired_resources 	20
scalar Network300.node50 	query_homogenity_rate 	33.333333333333
scalar Network300.node50 	qrecord_time 	49194.528211056
scalar Network300.node50 	discovery_resolution_rate 	100
scalar Network300.node130 	rate_of_requesters 	1
scalar Network300.node130 	number_of_resources 	16500
scalar Network300.node130 	time_period 	5
scalar Network300.node130 	number_of_messages 	31
scalar Network300.node130 	discovery_latency 	204
scalar Network300.node130 	number_of_desired_resources 	20
scalar Network300.node130 	query_homogenity_rate 	33.333333333333
scalar Network300.node130 	qrecord_time 	49297.531024795
scalar Network300.node130 	discovery_resolution_rate 	100
scalar Network300.node120 	rate_of_requesters 	1
scalar Network300.node120 	number_of_resources 	16500
scalar Network300.node120 	time_period 	10
scalar Network300.node120 	number_of_messages 	33
scalar Network300.node120 	discovery_latency 	216
scalar Network300.node120 	number_of_desired_resources 	20
scalar Network300.node120 	query_homogenity_rate 	33.333333333333
scalar Network300.node120 	qrecord_time 	49519.905861953
scalar Network300.node120 	discovery_resolution_rate 	100
scalar Network300.node150 	rate_of_requesters 	1
scalar Network300.node150 	number_of_resources 	16500
scalar Network300.node150 	time_period 	10
scalar Network300.node150 	number_of_messages 	41
scalar Network300.node150 	discovery_latency 	348
scalar Network300.node150 	number_of_desired_resources 	20
scalar Network300.node150 	query_homogenity_rate 	33.333333333333
scalar Network300.node150 	qrecord_time 	50152.44620982
scalar Network300.node150 	discovery_resolution_rate 	100
scalar Network300.node130 	rate_of_requesters 	1
scalar Network300.node130 	number_of_resources 	16500
scalar Network300.node130 	time_period 	6
scalar Network300.node130 	number_of_messages 	38
scalar Network300.node130 	discovery_latency 	228
scalar Network300.node130 	number_of_desired_resources 	20
scalar Network300.node130 	query_homogenity_rate 	33.333333333333
scalar Network300.node130 	qrecord_time 	50582.271069604
scalar Network300.node130 	discovery_resolution_rate 	100
scalar Network300.node60 	rate_of_requesters 	1
scalar Network300.node60 	number_of_resources 	16500
scalar Network300.node60 	time_period 	10
scalar Network300.node60 	number_of_messages 	14
scalar Network300.node60 	discovery_latency 	95.999999999997
scalar Network300.node60 	number_of_desired_resources 	20
scalar Network300.node60 	query_homogenity_rate 	33.333333333333
scalar Network300.node60 	qrecord_time 	52045.136736443
scalar Network300.node60 	discovery_resolution_rate 	100
scalar Network300.node130 	rate_of_requesters 	1
scalar Network300.node130 	number_of_resources 	16500
scalar Network300.node130 	time_period 	7
scalar Network300.node130 	number_of_messages 	23
scalar Network300.node130 	discovery_latency 	150
scalar Network300.node130 	number_of_desired_resources 	20
scalar Network300.node130 	query_homogenity_rate 	33.333333333333
scalar Network300.node130 	qrecord_time 	52430.069433052
scalar Network300.node130 	discovery_resolution_rate 	100
scalar Network300.node110 	rate_of_requesters 	1
scalar Network300.node110 	number_of_resources 	16500
scalar Network300.node110 	time_period 	9
scalar Network300.node110 	number_of_messages 	16
scalar Network300.node110 	discovery_latency 	95.999999999997
scalar Network300.node110 	number_of_desired_resources 	20
scalar Network300.node110 	query_homogenity_rate 	33.333333333333
scalar Network300.node110 	qrecord_time 	53691.690171743
scalar Network300.node110 	discovery_resolution_rate 	100
scalar Network300.node110 	rate_of_requesters 	1
scalar Network300.node110 	number_of_resources 	16500
scalar Network300.node110 	time_period 	10
scalar Network300.node110 	number_of_messages 	26
scalar Network300.node110 	discovery_latency 	252
scalar Network300.node110 	number_of_desired_resources 	20
scalar Network300.node110 	query_homogenity_rate 	33.333333333333
scalar Network300.node110 	qrecord_time 	54309.507686816
scalar Network300.node110 	discovery_resolution_rate 	100
scalar Network300.node130 	rate_of_requesters 	1
scalar Network300.node130 	number_of_resources 	16500
scalar Network300.node130 	time_period 	8
scalar Network300.node130 	number_of_messages 	23
scalar Network300.node130 	discovery_latency 	150.00000000001
scalar Network300.node130 	number_of_desired_resources 	20
scalar Network300.node130 	query_homogenity_rate 	33.333333333333
scalar Network300.node130 	qrecord_time 	55568.627041447
scalar Network300.node130 	discovery_resolution_rate 	100
scalar Network300.node130 	rate_of_requesters 	1
scalar Network300.node130 	number_of_resources 	16500
scalar Network300.node130 	time_period 	9
scalar Network300.node130 	number_of_messages 	23
scalar Network300.node130 	discovery_latency 	150
scalar Network300.node130 	number_of_desired_resources 	20
scalar Network300.node130 	query_homogenity_rate 	33.333333333333
scalar Network300.node130 	qrecord_time 	59342.561635379
scalar Network300.node130 	discovery_resolution_rate 	100
scalar Network300.node20 	rate_of_requesters 	1
scalar Network300.node20 	number_of_resources 	16500
scalar Network300.node20 	time_period 	9
scalar Network300.node20 	number_of_messages 	19
scalar Network300.node20 	discovery_latency 	168
scalar Network300.node20 	number_of_desired_resources 	20
scalar Network300.node20 	query_homogenity_rate 	33.333333333333
scalar Network300.node20 	qrecord_time 	60563.012281172
scalar Network300.node20 	discovery_resolution_rate 	100
scalar Network300.node20 	rate_of_requesters 	1
scalar Network300.node20 	number_of_resources 	16500
scalar Network300.node20 	time_period 	10
scalar Network300.node20 	number_of_messages 	19
scalar Network300.node20 	discovery_latency 	168
scalar Network300.node20 	number_of_desired_resources 	20
scalar Network300.node20 	query_homogenity_rate 	33.333333333333
scalar Network300.node20 	qrecord_time 	61017.09492597
scalar Network300.node20 	discovery_resolution_rate 	100
scalar Network300.node130 	rate_of_requesters 	1
scalar Network300.node130 	number_of_resources 	16500
scalar Network300.node130 	time_period 	10
scalar Network300.node130 	number_of_messages 	23
scalar Network300.node130 	discovery_latency 	150.00000000001
scalar Network300.node130 	number_of_desired_resources 	20
scalar Network300.node130 	query_homogenity_rate 	33.333333333333
scalar Network300.node130 	qrecord_time 	64579.186182434
scalar Network300.node130 	discovery_resolution_rate 	100
