version 2
run net300-2-20150716-20:02:08-13316
attr as 1
attr configname net300
attr datetime 20150716-20:02:08
attr dnor 20
attr experiment net300
attr inifile omnetpp.ini
attr iterationvars "$rhdrq=3, $dnor=20, $as=1"
attr iterationvars2 "$rhdrq=3, $dnor=20, $as=1, $repetition=2"
attr measurement "$rhdrq=3, $dnor=20, $as=1"
attr network Network300
attr processid 13316
attr repetition 2
attr replication #2
attr resultdir results
attr rhdrq 3
attr runnumber 2
attr seedset 2

scalar . 	as 	1
scalar . 	dnor 	20
scalar . 	rhdrq 	3
scalar Network300.node160 	rate_of_requesters 	1
scalar Network300.node160 	number_of_resources 	16500
scalar Network300.node160 	time_period 	1
scalar Network300.node160 	number_of_messages 	32
scalar Network300.node160 	discovery_latency 	312
scalar Network300.node160 	number_of_desired_resources 	20
scalar Network300.node160 	query_homogenity_rate 	33.333333333333
scalar Network300.node160 	qrecord_time 	5020
scalar Network300.node160 	discovery_resolution_rate 	100
scalar Network300.node0 	rate_of_requesters 	1
scalar Network300.node0 	number_of_resources 	16500
scalar Network300.node0 	time_period 	1
scalar Network300.node0 	number_of_messages 	44
scalar Network300.node0 	discovery_latency 	372
scalar Network300.node0 	number_of_desired_resources 	20
scalar Network300.node0 	query_homogenity_rate 	33.333333333333
scalar Network300.node0 	qrecord_time 	5092
scalar Network300.node0 	discovery_resolution_rate 	100
scalar Network300.node240 	rate_of_requesters 	1
scalar Network300.node240 	number_of_resources 	16500
scalar Network300.node240 	time_period 	1
scalar Network300.node240 	number_of_messages 	30
scalar Network300.node240 	discovery_latency 	1476
scalar Network300.node240 	number_of_desired_resources 	20
scalar Network300.node240 	query_homogenity_rate 	33.333333333333
scalar Network300.node240 	qrecord_time 	6118
scalar Network300.node240 	discovery_resolution_rate 	66.666666666667
scalar Network300.node280 	rate_of_requesters 	1
scalar Network300.node280 	number_of_resources 	16500
scalar Network300.node280 	time_period 	1
scalar Network300.node280 	number_of_messages 	24
scalar Network300.node280 	discovery_latency 	1452
scalar Network300.node280 	number_of_desired_resources 	20
scalar Network300.node280 	query_homogenity_rate 	33.333333333333
scalar Network300.node280 	qrecord_time 	6136
scalar Network300.node280 	discovery_resolution_rate 	66.666666666667
scalar Network300.node170 	rate_of_requesters 	1
scalar Network300.node170 	number_of_resources 	16500
scalar Network300.node170 	time_period 	1
scalar Network300.node170 	number_of_messages 	10
scalar Network300.node170 	discovery_latency 	1428
scalar Network300.node170 	number_of_desired_resources 	20
scalar Network300.node170 	query_homogenity_rate 	33.333333333333
scalar Network300.node170 	qrecord_time 	6160
scalar Network300.node170 	discovery_resolution_rate 	66.666666666667
scalar Network300.node40 	rate_of_requesters 	1
scalar Network300.node40 	number_of_resources 	16500
scalar Network300.node40 	time_period 	1
scalar Network300.node40 	number_of_messages 	11
scalar Network300.node40 	discovery_latency 	1476
scalar Network300.node40 	number_of_desired_resources 	20
scalar Network300.node40 	query_homogenity_rate 	33.333333333333
scalar Network300.node40 	qrecord_time 	6190
scalar Network300.node40 	discovery_resolution_rate 	66.666666666667
scalar Network300.node110 	rate_of_requesters 	1
scalar Network300.node110 	number_of_resources 	16500
scalar Network300.node110 	time_period 	1
scalar Network300.node110 	number_of_messages 	18
scalar Network300.node110 	discovery_latency 	1548
scalar Network300.node110 	number_of_desired_resources 	20
scalar Network300.node110 	query_homogenity_rate 	33.333333333333
scalar Network300.node110 	qrecord_time 	6196
scalar Network300.node110 	discovery_resolution_rate 	66.666666666667
scalar Network300.node250 	rate_of_requesters 	1
scalar Network300.node250 	number_of_resources 	16500
scalar Network300.node250 	time_period 	1
scalar Network300.node250 	number_of_messages 	35
scalar Network300.node250 	discovery_latency 	1476
scalar Network300.node250 	number_of_desired_resources 	20
scalar Network300.node250 	query_homogenity_rate 	33.333333333333
scalar Network300.node250 	qrecord_time 	6208
scalar Network300.node250 	discovery_resolution_rate 	66.666666666667
scalar Network300.node180 	rate_of_requesters 	1
scalar Network300.node180 	number_of_resources 	16500
scalar Network300.node180 	time_period 	1
scalar Network300.node180 	number_of_messages 	14
scalar Network300.node180 	discovery_latency 	1488
scalar Network300.node180 	number_of_desired_resources 	20
scalar Network300.node180 	query_homogenity_rate 	33.333333333333
scalar Network300.node180 	qrecord_time 	6214
scalar Network300.node180 	discovery_resolution_rate 	66.666666666667
scalar Network300.node290 	rate_of_requesters 	1
scalar Network300.node290 	number_of_resources 	16500
scalar Network300.node290 	time_period 	1
scalar Network300.node290 	number_of_messages 	19
scalar Network300.node290 	discovery_latency 	1464
scalar Network300.node290 	number_of_desired_resources 	20
scalar Network300.node290 	query_homogenity_rate 	33.333333333333
scalar Network300.node290 	qrecord_time 	6220
scalar Network300.node290 	discovery_resolution_rate 	66.666666666667
scalar Network300.node20 	rate_of_requesters 	1
scalar Network300.node20 	number_of_resources 	16500
scalar Network300.node20 	time_period 	1
scalar Network300.node20 	number_of_messages 	7
scalar Network300.node20 	discovery_latency 	1560
scalar Network300.node20 	number_of_desired_resources 	20
scalar Network300.node20 	query_homogenity_rate 	33.333333333333
scalar Network300.node20 	qrecord_time 	6232
scalar Network300.node20 	discovery_resolution_rate 	33.333333333333
scalar Network300.node140 	rate_of_requesters 	1
scalar Network300.node140 	number_of_resources 	16500
scalar Network300.node140 	time_period 	1
scalar Network300.node140 	number_of_messages 	14
scalar Network300.node140 	discovery_latency 	1572
scalar Network300.node140 	number_of_desired_resources 	20
scalar Network300.node140 	query_homogenity_rate 	33.333333333333
scalar Network300.node140 	qrecord_time 	6238
scalar Network300.node140 	discovery_resolution_rate 	33.333333333333
scalar Network300.node260 	rate_of_requesters 	1
scalar Network300.node260 	number_of_resources 	16500
scalar Network300.node260 	time_period 	1
scalar Network300.node260 	number_of_messages 	27
scalar Network300.node260 	discovery_latency 	1524
scalar Network300.node260 	number_of_desired_resources 	20
scalar Network300.node260 	query_homogenity_rate 	33.333333333333
scalar Network300.node260 	qrecord_time 	6256
scalar Network300.node260 	discovery_resolution_rate 	66.666666666667
scalar Network300.node60 	rate_of_requesters 	1
scalar Network300.node60 	number_of_resources 	16500
scalar Network300.node60 	time_period 	1
scalar Network300.node60 	number_of_messages 	29
scalar Network300.node60 	discovery_latency 	1548
scalar Network300.node60 	number_of_desired_resources 	20
scalar Network300.node60 	query_homogenity_rate 	33.333333333333
scalar Network300.node60 	qrecord_time 	6262
scalar Network300.node60 	discovery_resolution_rate 	33.333333333333
scalar Network300.node100 	rate_of_requesters 	1
scalar Network300.node100 	number_of_resources 	16500
scalar Network300.node100 	time_period 	1
scalar Network300.node100 	number_of_messages 	14
scalar Network300.node100 	discovery_latency 	1572
scalar Network300.node100 	number_of_desired_resources 	20
scalar Network300.node100 	query_homogenity_rate 	33.333333333333
scalar Network300.node100 	qrecord_time 	6262
scalar Network300.node100 	discovery_resolution_rate 	33.333333333333
scalar Network300.node150 	rate_of_requesters 	1
scalar Network300.node150 	number_of_resources 	16500
scalar Network300.node150 	time_period 	1
scalar Network300.node150 	number_of_messages 	25
scalar Network300.node150 	discovery_latency 	1536
scalar Network300.node150 	number_of_desired_resources 	20
scalar Network300.node150 	query_homogenity_rate 	33.333333333333
scalar Network300.node150 	qrecord_time 	6268
scalar Network300.node150 	discovery_resolution_rate 	33.333333333333
scalar Network300.node120 	rate_of_requesters 	1
scalar Network300.node120 	number_of_resources 	16500
scalar Network300.node120 	time_period 	1
scalar Network300.node120 	number_of_messages 	12
scalar Network300.node120 	discovery_latency 	1560
scalar Network300.node120 	number_of_desired_resources 	20
scalar Network300.node120 	query_homogenity_rate 	33.333333333333
scalar Network300.node120 	qrecord_time 	6268
scalar Network300.node120 	discovery_resolution_rate 	66.666666666667
scalar Network300.node210 	rate_of_requesters 	1
scalar Network300.node210 	number_of_resources 	16500
scalar Network300.node210 	time_period 	1
scalar Network300.node210 	number_of_messages 	5
scalar Network300.node210 	discovery_latency 	1536
scalar Network300.node210 	number_of_desired_resources 	20
scalar Network300.node210 	query_homogenity_rate 	33.333333333333
scalar Network300.node210 	qrecord_time 	6268
scalar Network300.node210 	discovery_resolution_rate 	33.333333333333
scalar Network300.node30 	rate_of_requesters 	1
scalar Network300.node30 	number_of_resources 	16500
scalar Network300.node30 	time_period 	1
scalar Network300.node30 	number_of_messages 	7
scalar Network300.node30 	discovery_latency 	1572
scalar Network300.node30 	number_of_desired_resources 	20
scalar Network300.node30 	query_homogenity_rate 	33.333333333333
scalar Network300.node30 	qrecord_time 	6268
scalar Network300.node30 	discovery_resolution_rate 	33.333333333333
scalar Network300.node190 	rate_of_requesters 	1
scalar Network300.node190 	number_of_resources 	16500
scalar Network300.node190 	time_period 	1
scalar Network300.node190 	number_of_messages 	3
scalar Network300.node190 	discovery_latency 	1500
scalar Network300.node190 	number_of_desired_resources 	20
scalar Network300.node190 	query_homogenity_rate 	33.333333333333
scalar Network300.node190 	qrecord_time 	6268
scalar Network300.node190 	discovery_resolution_rate 	33.333333333333
scalar Network300.node220 	rate_of_requesters 	1
scalar Network300.node220 	number_of_resources 	16500
scalar Network300.node220 	time_period 	1
scalar Network300.node220 	number_of_messages 	5
scalar Network300.node220 	discovery_latency 	1500
scalar Network300.node220 	number_of_desired_resources 	20
scalar Network300.node220 	query_homogenity_rate 	33.333333333333
scalar Network300.node220 	qrecord_time 	6274
scalar Network300.node220 	discovery_resolution_rate 	33.333333333333
scalar Network300.node10 	rate_of_requesters 	1
scalar Network300.node10 	number_of_resources 	16500
scalar Network300.node10 	time_period 	1
scalar Network300.node10 	number_of_messages 	10
scalar Network300.node10 	discovery_latency 	1536
scalar Network300.node10 	number_of_desired_resources 	20
scalar Network300.node10 	query_homogenity_rate 	33.333333333333
scalar Network300.node10 	qrecord_time 	6274
scalar Network300.node10 	discovery_resolution_rate 	33.333333333333
scalar Network300.node70 	rate_of_requesters 	1
scalar Network300.node70 	number_of_resources 	16500
scalar Network300.node70 	time_period 	1
scalar Network300.node70 	number_of_messages 	5
scalar Network300.node70 	discovery_latency 	1512
scalar Network300.node70 	number_of_desired_resources 	20
scalar Network300.node70 	query_homogenity_rate 	33.333333333333
scalar Network300.node70 	qrecord_time 	6286
scalar Network300.node70 	discovery_resolution_rate 	33.333333333333
scalar Network300.node200 	rate_of_requesters 	1
scalar Network300.node200 	number_of_resources 	16500
scalar Network300.node200 	time_period 	1
scalar Network300.node200 	number_of_messages 	14
scalar Network300.node200 	discovery_latency 	1572
scalar Network300.node200 	number_of_desired_resources 	20
scalar Network300.node200 	query_homogenity_rate 	33.333333333333
scalar Network300.node200 	qrecord_time 	6286
scalar Network300.node200 	discovery_resolution_rate 	66.666666666667
scalar Network300.node80 	rate_of_requesters 	1
scalar Network300.node80 	number_of_resources 	16500
scalar Network300.node80 	time_period 	1
scalar Network300.node80 	number_of_messages 	5
scalar Network300.node80 	discovery_latency 	1536
scalar Network300.node80 	number_of_desired_resources 	20
scalar Network300.node80 	query_homogenity_rate 	33.333333333333
scalar Network300.node80 	qrecord_time 	6292
scalar Network300.node80 	discovery_resolution_rate 	33.333333333333
scalar Network300.node130 	rate_of_requesters 	1
scalar Network300.node130 	number_of_resources 	16500
scalar Network300.node130 	time_period 	1
scalar Network300.node130 	number_of_messages 	10
scalar Network300.node130 	discovery_latency 	1512
scalar Network300.node130 	number_of_desired_resources 	20
scalar Network300.node130 	query_homogenity_rate 	33.333333333333
scalar Network300.node130 	qrecord_time 	6292
scalar Network300.node130 	discovery_resolution_rate 	33.333333333333
scalar Network300.node230 	rate_of_requesters 	1
scalar Network300.node230 	number_of_resources 	16500
scalar Network300.node230 	time_period 	1
scalar Network300.node230 	number_of_messages 	4
scalar Network300.node230 	discovery_latency 	1536
scalar Network300.node230 	number_of_desired_resources 	20
scalar Network300.node230 	query_homogenity_rate 	33.333333333333
scalar Network300.node230 	qrecord_time 	6304
scalar Network300.node230 	discovery_resolution_rate 	33.333333333333
scalar Network300.node90 	rate_of_requesters 	1
scalar Network300.node90 	number_of_resources 	16500
scalar Network300.node90 	time_period 	1
scalar Network300.node90 	number_of_messages 	16
scalar Network300.node90 	discovery_latency 	1584
scalar Network300.node90 	number_of_desired_resources 	20
scalar Network300.node90 	query_homogenity_rate 	33.333333333333
scalar Network300.node90 	qrecord_time 	6352
scalar Network300.node90 	discovery_resolution_rate 	66.666666666667
scalar Network300.node190 	rate_of_requesters 	1
scalar Network300.node190 	number_of_resources 	16500
scalar Network300.node190 	time_period 	2
scalar Network300.node190 	number_of_messages 	12
scalar Network300.node190 	discovery_latency 	1500
scalar Network300.node190 	number_of_desired_resources 	20
scalar Network300.node190 	query_homogenity_rate 	33.333333333333
scalar Network300.node190 	qrecord_time 	6415.309446481
scalar Network300.node190 	discovery_resolution_rate 	33.333333333333
scalar Network300.node50 	rate_of_requesters 	1
scalar Network300.node50 	number_of_resources 	16500
scalar Network300.node50 	time_period 	1
scalar Network300.node50 	number_of_messages 	4
scalar Network300.node50 	discovery_latency 	1668
scalar Network300.node50 	number_of_desired_resources 	20
scalar Network300.node50 	query_homogenity_rate 	33.333333333333
scalar Network300.node50 	qrecord_time 	6418
scalar Network300.node50 	discovery_resolution_rate 	33.333333333333
scalar Network300.node270 	rate_of_requesters 	1
scalar Network300.node270 	number_of_resources 	16500
scalar Network300.node270 	time_period 	1
scalar Network300.node270 	number_of_messages 	6
scalar Network300.node270 	discovery_latency 	1620
scalar Network300.node270 	number_of_desired_resources 	20
scalar Network300.node270 	query_homogenity_rate 	33.333333333333
scalar Network300.node270 	qrecord_time 	6472
scalar Network300.node270 	discovery_resolution_rate 	33.333333333333
scalar Network300.node240 	rate_of_requesters 	1
scalar Network300.node240 	number_of_resources 	16500
scalar Network300.node240 	time_period 	2
scalar Network300.node240 	number_of_messages 	8
scalar Network300.node240 	discovery_latency 	1584
scalar Network300.node240 	number_of_desired_resources 	20
scalar Network300.node240 	query_homogenity_rate 	33.333333333333
scalar Network300.node240 	qrecord_time 	6603.816265111
scalar Network300.node240 	discovery_resolution_rate 	33.333333333333
scalar Network300.node280 	rate_of_requesters 	1
scalar Network300.node280 	number_of_resources 	16500
scalar Network300.node280 	time_period 	2
scalar Network300.node280 	number_of_messages 	10
scalar Network300.node280 	discovery_latency 	1536
scalar Network300.node280 	number_of_desired_resources 	20
scalar Network300.node280 	query_homogenity_rate 	33.333333333333
scalar Network300.node280 	qrecord_time 	6627.895309005
scalar Network300.node280 	discovery_resolution_rate 	33.333333333333
scalar Network300.node70 	rate_of_requesters 	1
scalar Network300.node70 	number_of_resources 	16500
scalar Network300.node70 	time_period 	2
scalar Network300.node70 	number_of_messages 	8
scalar Network300.node70 	discovery_latency 	1548
scalar Network300.node70 	number_of_desired_resources 	20
scalar Network300.node70 	query_homogenity_rate 	33.333333333333
scalar Network300.node70 	qrecord_time 	6895.975208961
scalar Network300.node70 	discovery_resolution_rate 	33.333333333333
scalar Network300.node40 	rate_of_requesters 	1
scalar Network300.node40 	number_of_resources 	16500
scalar Network300.node40 	time_period 	2
scalar Network300.node40 	number_of_messages 	6
scalar Network300.node40 	discovery_latency 	1560
scalar Network300.node40 	number_of_desired_resources 	20
scalar Network300.node40 	query_homogenity_rate 	33.333333333333
scalar Network300.node40 	qrecord_time 	6931.968600947
scalar Network300.node40 	discovery_resolution_rate 	33.333333333333
scalar Network300.node190 	rate_of_requesters 	1
scalar Network300.node190 	number_of_resources 	16500
scalar Network300.node190 	time_period 	3
scalar Network300.node190 	number_of_messages 	12
scalar Network300.node190 	discovery_latency 	1524
scalar Network300.node190 	number_of_desired_resources 	20
scalar Network300.node190 	query_homogenity_rate 	33.333333333333
scalar Network300.node190 	qrecord_time 	6953.598533903
scalar Network300.node190 	discovery_resolution_rate 	33.333333333333
scalar Network300.node180 	rate_of_requesters 	1
scalar Network300.node180 	number_of_resources 	16500
scalar Network300.node180 	time_period 	2
scalar Network300.node180 	number_of_messages 	15
scalar Network300.node180 	discovery_latency 	1548
scalar Network300.node180 	number_of_desired_resources 	20
scalar Network300.node180 	query_homogenity_rate 	33.333333333333
scalar Network300.node180 	qrecord_time 	7066.659109083
scalar Network300.node180 	discovery_resolution_rate 	33.333333333333
scalar Network300.node60 	rate_of_requesters 	1
scalar Network300.node60 	number_of_resources 	16500
scalar Network300.node60 	time_period 	2
scalar Network300.node60 	number_of_messages 	10
scalar Network300.node60 	discovery_latency 	1548
scalar Network300.node60 	number_of_desired_resources 	20
scalar Network300.node60 	query_homogenity_rate 	33.333333333333
scalar Network300.node60 	qrecord_time 	7212.724094735
scalar Network300.node60 	discovery_resolution_rate 	33.333333333333
scalar Network300.node30 	rate_of_requesters 	1
scalar Network300.node30 	number_of_resources 	16500
scalar Network300.node30 	time_period 	2
scalar Network300.node30 	number_of_messages 	8
scalar Network300.node30 	discovery_latency 	1596
scalar Network300.node30 	number_of_desired_resources 	20
scalar Network300.node30 	query_homogenity_rate 	33.333333333333
scalar Network300.node30 	qrecord_time 	7511.808842716
scalar Network300.node30 	discovery_resolution_rate 	33.333333333333
scalar Network300.node180 	rate_of_requesters 	1
scalar Network300.node180 	number_of_resources 	16500
scalar Network300.node180 	time_period 	3
scalar Network300.node180 	number_of_messages 	15
scalar Network300.node180 	discovery_latency 	1488
scalar Network300.node180 	number_of_desired_resources 	20
scalar Network300.node180 	query_homogenity_rate 	33.333333333333
scalar Network300.node180 	qrecord_time 	7765.995872081
scalar Network300.node180 	discovery_resolution_rate 	33.333333333333
scalar Network300.node150 	rate_of_requesters 	1
scalar Network300.node150 	number_of_resources 	16500
scalar Network300.node150 	time_period 	2
scalar Network300.node150 	number_of_messages 	49
scalar Network300.node150 	discovery_latency 	468
scalar Network300.node150 	number_of_desired_resources 	20
scalar Network300.node150 	query_homogenity_rate 	33.333333333333
scalar Network300.node150 	qrecord_time 	7941.267448944
scalar Network300.node150 	discovery_resolution_rate 	100
scalar Network300.node40 	rate_of_requesters 	1
scalar Network300.node40 	number_of_resources 	16500
scalar Network300.node40 	time_period 	3
scalar Network300.node40 	number_of_messages 	6
scalar Network300.node40 	discovery_latency 	1584
scalar Network300.node40 	number_of_desired_resources 	20
scalar Network300.node40 	query_homogenity_rate 	33.333333333333
scalar Network300.node40 	qrecord_time 	7954.636035991
scalar Network300.node40 	discovery_resolution_rate 	33.333333333333
scalar Network300.node0 	rate_of_requesters 	1
scalar Network300.node0 	number_of_resources 	16500
scalar Network300.node0 	time_period 	2
scalar Network300.node0 	number_of_messages 	28
scalar Network300.node0 	discovery_latency 	366
scalar Network300.node0 	number_of_desired_resources 	20
scalar Network300.node0 	query_homogenity_rate 	33.333333333333
scalar Network300.node0 	qrecord_time 	8057.992364111
scalar Network300.node0 	discovery_resolution_rate 	100
scalar Network300.node290 	rate_of_requesters 	1
scalar Network300.node290 	number_of_resources 	16500
scalar Network300.node290 	time_period 	2
scalar Network300.node290 	number_of_messages 	22
scalar Network300.node290 	discovery_latency 	1692
scalar Network300.node290 	number_of_desired_resources 	20
scalar Network300.node290 	query_homogenity_rate 	33.333333333333
scalar Network300.node290 	qrecord_time 	8063.012130969
scalar Network300.node290 	discovery_resolution_rate 	33.333333333333
scalar Network300.node160 	rate_of_requesters 	1
scalar Network300.node160 	number_of_resources 	16500
scalar Network300.node160 	time_period 	2
scalar Network300.node160 	number_of_messages 	31
scalar Network300.node160 	discovery_latency 	1536
scalar Network300.node160 	number_of_desired_resources 	20
scalar Network300.node160 	query_homogenity_rate 	33.333333333333
scalar Network300.node160 	qrecord_time 	8550.721181927
scalar Network300.node160 	discovery_resolution_rate 	66.666666666667
scalar Network300.node170 	rate_of_requesters 	1
scalar Network300.node170 	number_of_resources 	16500
scalar Network300.node170 	time_period 	2
scalar Network300.node170 	number_of_messages 	11
scalar Network300.node170 	discovery_latency 	1524
scalar Network300.node170 	number_of_desired_resources 	20
scalar Network300.node170 	query_homogenity_rate 	33.333333333333
scalar Network300.node170 	qrecord_time 	8572.59305565
scalar Network300.node170 	discovery_resolution_rate 	33.333333333333
scalar Network300.node160 	rate_of_requesters 	1
scalar Network300.node160 	number_of_resources 	16500
scalar Network300.node160 	time_period 	3
scalar Network300.node160 	number_of_messages 	12
scalar Network300.node160 	discovery_latency 	1512
scalar Network300.node160 	number_of_desired_resources 	20
scalar Network300.node160 	query_homogenity_rate 	33.333333333333
scalar Network300.node160 	qrecord_time 	8689.330813373
scalar Network300.node160 	discovery_resolution_rate 	33.333333333333
scalar Network300.node90 	rate_of_requesters 	1
scalar Network300.node90 	number_of_resources 	16500
scalar Network300.node90 	time_period 	2
scalar Network300.node90 	number_of_messages 	12
scalar Network300.node90 	discovery_latency 	1536
scalar Network300.node90 	number_of_desired_resources 	20
scalar Network300.node90 	query_homogenity_rate 	33.333333333333
scalar Network300.node90 	qrecord_time 	8779.704606552
scalar Network300.node90 	discovery_resolution_rate 	33.333333333333
scalar Network300.node60 	rate_of_requesters 	1
scalar Network300.node60 	number_of_resources 	16500
scalar Network300.node60 	time_period 	4
scalar Network300.node60 	number_of_messages 	46
scalar Network300.node60 	discovery_latency 	432
scalar Network300.node60 	number_of_desired_resources 	20
scalar Network300.node60 	query_homogenity_rate 	33.333333333333
scalar Network300.node60 	qrecord_time 	8794.216308973
scalar Network300.node60 	discovery_resolution_rate 	100
scalar Network300.node120 	rate_of_requesters 	1
scalar Network300.node120 	number_of_resources 	16500
scalar Network300.node120 	time_period 	2
scalar Network300.node120 	number_of_messages 	21
scalar Network300.node120 	discovery_latency 	1572
scalar Network300.node120 	number_of_desired_resources 	20
scalar Network300.node120 	query_homogenity_rate 	33.333333333333
scalar Network300.node120 	qrecord_time 	8929.754855264
scalar Network300.node120 	discovery_resolution_rate 	66.666666666667
scalar Network300.node80 	rate_of_requesters 	1
scalar Network300.node80 	number_of_resources 	16500
scalar Network300.node80 	time_period 	2
scalar Network300.node80 	number_of_messages 	10
scalar Network300.node80 	discovery_latency 	1644
scalar Network300.node80 	number_of_desired_resources 	20
scalar Network300.node80 	query_homogenity_rate 	33.333333333333
scalar Network300.node80 	qrecord_time 	9286.937988261
scalar Network300.node80 	discovery_resolution_rate 	33.333333333333
scalar Network300.node100 	rate_of_requesters 	1
scalar Network300.node100 	number_of_resources 	16500
scalar Network300.node100 	time_period 	2
scalar Network300.node100 	number_of_messages 	18
scalar Network300.node100 	discovery_latency 	1560
scalar Network300.node100 	number_of_desired_resources 	20
scalar Network300.node100 	query_homogenity_rate 	33.333333333333
scalar Network300.node100 	qrecord_time 	9676.283283441
scalar Network300.node100 	discovery_resolution_rate 	66.666666666667
scalar Network300.node60 	rate_of_requesters 	1
scalar Network300.node60 	number_of_resources 	16500
scalar Network300.node60 	time_period 	3
scalar Network300.node60 	number_of_messages 	28
scalar Network300.node60 	discovery_latency 	1500
scalar Network300.node60 	number_of_desired_resources 	20
scalar Network300.node60 	query_homogenity_rate 	33.333333333333
scalar Network300.node60 	qrecord_time 	9790.576460681
scalar Network300.node60 	discovery_resolution_rate 	66.666666666667
scalar Network300.node80 	rate_of_requesters 	1
scalar Network300.node80 	number_of_resources 	16500
scalar Network300.node80 	time_period 	3
scalar Network300.node80 	number_of_messages 	15
scalar Network300.node80 	discovery_latency 	1596
scalar Network300.node80 	number_of_desired_resources 	20
scalar Network300.node80 	query_homogenity_rate 	33.333333333333
scalar Network300.node80 	qrecord_time 	10026.865106969
scalar Network300.node80 	discovery_resolution_rate 	33.333333333333
scalar Network300.node60 	rate_of_requesters 	1
scalar Network300.node60 	number_of_resources 	16500
scalar Network300.node60 	time_period 	5
scalar Network300.node60 	number_of_messages 	30
scalar Network300.node60 	discovery_latency 	252
scalar Network300.node60 	number_of_desired_resources 	20
scalar Network300.node60 	query_homogenity_rate 	33.333333333333
scalar Network300.node60 	qrecord_time 	10235.26254194
scalar Network300.node60 	discovery_resolution_rate 	100
scalar Network300.node270 	rate_of_requesters 	1
scalar Network300.node270 	number_of_resources 	16500
scalar Network300.node270 	time_period 	2
scalar Network300.node270 	number_of_messages 	34
scalar Network300.node270 	discovery_latency 	420
scalar Network300.node270 	number_of_desired_resources 	20
scalar Network300.node270 	query_homogenity_rate 	33.333333333333
scalar Network300.node270 	qrecord_time 	10511.621306728
scalar Network300.node270 	discovery_resolution_rate 	100
scalar Network300.node190 	rate_of_requesters 	1
scalar Network300.node190 	number_of_resources 	16500
scalar Network300.node190 	time_period 	4
scalar Network300.node190 	number_of_messages 	3
scalar Network300.node190 	discovery_latency 	1668
scalar Network300.node190 	number_of_desired_resources 	20
scalar Network300.node190 	query_homogenity_rate 	33.333333333333
scalar Network300.node190 	qrecord_time 	10620.993736389
scalar Network300.node190 	discovery_resolution_rate 	33.333333333333
scalar Network300.node100 	rate_of_requesters 	1
scalar Network300.node100 	number_of_resources 	16500
scalar Network300.node100 	time_period 	3
scalar Network300.node100 	number_of_messages 	28
scalar Network300.node100 	discovery_latency 	1620
scalar Network300.node100 	number_of_desired_resources 	20
scalar Network300.node100 	query_homogenity_rate 	33.333333333333
scalar Network300.node100 	qrecord_time 	10629.643958028
scalar Network300.node100 	discovery_resolution_rate 	33.333333333333
scalar Network300.node220 	rate_of_requesters 	1
scalar Network300.node220 	number_of_resources 	16500
scalar Network300.node220 	time_period 	2
scalar Network300.node220 	number_of_messages 	5
scalar Network300.node220 	discovery_latency 	1632
scalar Network300.node220 	number_of_desired_resources 	20
scalar Network300.node220 	query_homogenity_rate 	33.333333333333
scalar Network300.node220 	qrecord_time 	10675.347611991
scalar Network300.node220 	discovery_resolution_rate 	33.333333333333
scalar Network300.node230 	rate_of_requesters 	1
scalar Network300.node230 	number_of_resources 	16500
scalar Network300.node230 	time_period 	2
scalar Network300.node230 	number_of_messages 	14
scalar Network300.node230 	discovery_latency 	1584
scalar Network300.node230 	number_of_desired_resources 	20
scalar Network300.node230 	query_homogenity_rate 	33.333333333333
scalar Network300.node230 	qrecord_time 	10801.659012215
scalar Network300.node230 	discovery_resolution_rate 	33.333333333333
scalar Network300.node280 	rate_of_requesters 	1
scalar Network300.node280 	number_of_resources 	16500
scalar Network300.node280 	time_period 	3
scalar Network300.node280 	number_of_messages 	9
scalar Network300.node280 	discovery_latency 	1596
scalar Network300.node280 	number_of_desired_resources 	20
scalar Network300.node280 	query_homogenity_rate 	33.333333333333
scalar Network300.node280 	qrecord_time 	10834.737867404
scalar Network300.node280 	discovery_resolution_rate 	33.333333333333
scalar Network300.node20 	rate_of_requesters 	1
scalar Network300.node20 	number_of_resources 	16500
scalar Network300.node20 	time_period 	2
scalar Network300.node20 	number_of_messages 	15
scalar Network300.node20 	discovery_latency 	1572
scalar Network300.node20 	number_of_desired_resources 	20
scalar Network300.node20 	query_homogenity_rate 	33.333333333333
scalar Network300.node20 	qrecord_time 	11004.690925052
scalar Network300.node20 	discovery_resolution_rate 	33.333333333333
scalar Network300.node170 	rate_of_requesters 	1
scalar Network300.node170 	number_of_resources 	16500
scalar Network300.node170 	time_period 	3
scalar Network300.node170 	number_of_messages 	22
scalar Network300.node170 	discovery_latency 	1536
scalar Network300.node170 	number_of_desired_resources 	20
scalar Network300.node170 	query_homogenity_rate 	33.333333333333
scalar Network300.node170 	qrecord_time 	11721.629446569
scalar Network300.node170 	discovery_resolution_rate 	66.666666666667
scalar Network300.node190 	rate_of_requesters 	1
scalar Network300.node190 	number_of_resources 	16500
scalar Network300.node190 	time_period 	5
scalar Network300.node190 	number_of_messages 	17
scalar Network300.node190 	discovery_latency 	1500
scalar Network300.node190 	number_of_desired_resources 	20
scalar Network300.node190 	query_homogenity_rate 	33.333333333333
scalar Network300.node190 	qrecord_time 	11727.907157885
scalar Network300.node190 	discovery_resolution_rate 	66.666666666667
scalar Network300.node100 	rate_of_requesters 	1
scalar Network300.node100 	number_of_resources 	16500
scalar Network300.node100 	time_period 	4
scalar Network300.node100 	number_of_messages 	18
scalar Network300.node100 	discovery_latency 	144
scalar Network300.node100 	number_of_desired_resources 	20
scalar Network300.node100 	query_homogenity_rate 	33.333333333333
scalar Network300.node100 	qrecord_time 	11772.228581722
scalar Network300.node100 	discovery_resolution_rate 	100
scalar Network300.node40 	rate_of_requesters 	1
scalar Network300.node40 	number_of_resources 	16500
scalar Network300.node40 	time_period 	4
scalar Network300.node40 	number_of_messages 	23
scalar Network300.node40 	discovery_latency 	168
scalar Network300.node40 	number_of_desired_resources 	20
scalar Network300.node40 	query_homogenity_rate 	33.333333333333
scalar Network300.node40 	qrecord_time 	11849.851194946
scalar Network300.node40 	discovery_resolution_rate 	100
scalar Network300.node190 	rate_of_requesters 	1
scalar Network300.node190 	number_of_resources 	16500
scalar Network300.node190 	time_period 	6
scalar Network300.node190 	number_of_messages 	20
scalar Network300.node190 	discovery_latency 	1476
scalar Network300.node190 	number_of_desired_resources 	20
scalar Network300.node190 	query_homogenity_rate 	33.333333333333
scalar Network300.node190 	qrecord_time 	12078.122292992
scalar Network300.node190 	discovery_resolution_rate 	66.666666666667
scalar Network300.node210 	rate_of_requesters 	1
scalar Network300.node210 	number_of_resources 	16500
scalar Network300.node210 	time_period 	2
scalar Network300.node210 	number_of_messages 	20
scalar Network300.node210 	discovery_latency 	1512
scalar Network300.node210 	number_of_desired_resources 	20
scalar Network300.node210 	query_homogenity_rate 	33.333333333333
scalar Network300.node210 	qrecord_time 	12117.944840489
scalar Network300.node210 	discovery_resolution_rate 	66.666666666667
scalar Network300.node10 	rate_of_requesters 	1
scalar Network300.node10 	number_of_resources 	16500
scalar Network300.node10 	time_period 	2
scalar Network300.node10 	number_of_messages 	37
scalar Network300.node10 	discovery_latency 	1452
scalar Network300.node10 	number_of_desired_resources 	20
scalar Network300.node10 	query_homogenity_rate 	33.333333333333
scalar Network300.node10 	qrecord_time 	12207.812434498
scalar Network300.node10 	discovery_resolution_rate 	66.666666666667
scalar Network300.node250 	rate_of_requesters 	1
scalar Network300.node250 	number_of_resources 	16500
scalar Network300.node250 	time_period 	2
scalar Network300.node250 	number_of_messages 	9
scalar Network300.node250 	discovery_latency 	1632
scalar Network300.node250 	number_of_desired_resources 	20
scalar Network300.node250 	query_homogenity_rate 	33.333333333333
scalar Network300.node250 	qrecord_time 	12570.881671595
scalar Network300.node250 	discovery_resolution_rate 	33.333333333333
scalar Network300.node30 	rate_of_requesters 	1
scalar Network300.node30 	number_of_resources 	16500
scalar Network300.node30 	time_period 	3
scalar Network300.node30 	number_of_messages 	13
scalar Network300.node30 	discovery_latency 	1584
scalar Network300.node30 	number_of_desired_resources 	20
scalar Network300.node30 	query_homogenity_rate 	33.333333333333
scalar Network300.node30 	qrecord_time 	12695.061694372
scalar Network300.node30 	discovery_resolution_rate 	66.666666666667
scalar Network300.node160 	rate_of_requesters 	1
scalar Network300.node160 	number_of_resources 	16500
scalar Network300.node160 	time_period 	4
scalar Network300.node160 	number_of_messages 	10
scalar Network300.node160 	discovery_latency 	1536
scalar Network300.node160 	number_of_desired_resources 	20
scalar Network300.node160 	query_homogenity_rate 	33.333333333333
scalar Network300.node160 	qrecord_time 	12714.068895805
scalar Network300.node160 	discovery_resolution_rate 	33.333333333333
scalar Network300.node0 	rate_of_requesters 	1
scalar Network300.node0 	number_of_resources 	16500
scalar Network300.node0 	time_period 	3
scalar Network300.node0 	number_of_messages 	5
scalar Network300.node0 	discovery_latency 	1596
scalar Network300.node0 	number_of_desired_resources 	20
scalar Network300.node0 	query_homogenity_rate 	33.333333333333
scalar Network300.node0 	qrecord_time 	13326.881965986
scalar Network300.node0 	discovery_resolution_rate 	33.333333333333
scalar Network300.node290 	rate_of_requesters 	1
scalar Network300.node290 	number_of_resources 	16500
scalar Network300.node290 	time_period 	3
scalar Network300.node290 	number_of_messages 	94
scalar Network300.node290 	discovery_latency 	1644
scalar Network300.node290 	number_of_desired_resources 	20
scalar Network300.node290 	query_homogenity_rate 	33.333333333333
scalar Network300.node290 	qrecord_time 	13332.912363099
scalar Network300.node290 	discovery_resolution_rate 	83.333333333333
scalar Network300.node120 	rate_of_requesters 	1
scalar Network300.node120 	number_of_resources 	16500
scalar Network300.node120 	time_period 	3
scalar Network300.node120 	number_of_messages 	20
scalar Network300.node120 	discovery_latency 	1548
scalar Network300.node120 	number_of_desired_resources 	20
scalar Network300.node120 	query_homogenity_rate 	33.333333333333
scalar Network300.node120 	qrecord_time 	13513.695325132
scalar Network300.node120 	discovery_resolution_rate 	33.333333333333
scalar Network300.node140 	rate_of_requesters 	1
scalar Network300.node140 	number_of_resources 	16500
scalar Network300.node140 	time_period 	2
scalar Network300.node140 	number_of_messages 	13
scalar Network300.node140 	discovery_latency 	1644
scalar Network300.node140 	number_of_desired_resources 	20
scalar Network300.node140 	query_homogenity_rate 	33.333333333333
scalar Network300.node140 	qrecord_time 	13549.464900317
scalar Network300.node140 	discovery_resolution_rate 	33.333333333333
scalar Network300.node210 	rate_of_requesters 	1
scalar Network300.node210 	number_of_resources 	16500
scalar Network300.node210 	time_period 	3
scalar Network300.node210 	number_of_messages 	11
scalar Network300.node210 	discovery_latency 	1476
scalar Network300.node210 	number_of_desired_resources 	20
scalar Network300.node210 	query_homogenity_rate 	33.333333333333
scalar Network300.node210 	qrecord_time 	13589.212139205
scalar Network300.node210 	discovery_resolution_rate 	33.333333333333
scalar Network300.node90 	rate_of_requesters 	1
scalar Network300.node90 	number_of_resources 	16500
scalar Network300.node90 	time_period 	3
scalar Network300.node90 	number_of_messages 	8
scalar Network300.node90 	discovery_latency 	1512
scalar Network300.node90 	number_of_desired_resources 	20
scalar Network300.node90 	query_homogenity_rate 	33.333333333333
scalar Network300.node90 	qrecord_time 	13606.578092017
scalar Network300.node90 	discovery_resolution_rate 	33.333333333333
scalar Network300.node130 	rate_of_requesters 	1
scalar Network300.node130 	number_of_resources 	16500
scalar Network300.node130 	time_period 	2
scalar Network300.node130 	number_of_messages 	18
scalar Network300.node130 	discovery_latency 	1560
scalar Network300.node130 	number_of_desired_resources 	20
scalar Network300.node130 	query_homogenity_rate 	33.333333333333
scalar Network300.node130 	qrecord_time 	13622.916689786
scalar Network300.node130 	discovery_resolution_rate 	33.333333333333
scalar Network300.node270 	rate_of_requesters 	1
scalar Network300.node270 	number_of_resources 	16500
scalar Network300.node270 	time_period 	3
scalar Network300.node270 	number_of_messages 	5
scalar Network300.node270 	discovery_latency 	1584
scalar Network300.node270 	number_of_desired_resources 	20
scalar Network300.node270 	query_homogenity_rate 	33.333333333333
scalar Network300.node270 	qrecord_time 	13635.631971397
scalar Network300.node270 	discovery_resolution_rate 	33.333333333333
scalar Network300.node80 	rate_of_requesters 	1
scalar Network300.node80 	number_of_resources 	16500
scalar Network300.node80 	time_period 	4
scalar Network300.node80 	number_of_messages 	8
scalar Network300.node80 	discovery_latency 	1536
scalar Network300.node80 	number_of_desired_resources 	20
scalar Network300.node80 	query_homogenity_rate 	33.333333333333
scalar Network300.node80 	qrecord_time 	13652.432541739
scalar Network300.node80 	discovery_resolution_rate 	33.333333333333
scalar Network300.node260 	rate_of_requesters 	1
scalar Network300.node260 	number_of_resources 	16500
scalar Network300.node260 	time_period 	2
scalar Network300.node260 	number_of_messages 	14
scalar Network300.node260 	discovery_latency 	1560
scalar Network300.node260 	number_of_desired_resources 	20
scalar Network300.node260 	query_homogenity_rate 	33.333333333333
scalar Network300.node260 	qrecord_time 	14164.067862848
scalar Network300.node260 	discovery_resolution_rate 	66.666666666667
scalar Network300.node90 	rate_of_requesters 	1
scalar Network300.node90 	number_of_resources 	16500
scalar Network300.node90 	time_period 	4
scalar Network300.node90 	number_of_messages 	10
scalar Network300.node90 	discovery_latency 	1596
scalar Network300.node90 	number_of_desired_resources 	20
scalar Network300.node90 	query_homogenity_rate 	33.333333333333
scalar Network300.node90 	qrecord_time 	14248.196885328
scalar Network300.node90 	discovery_resolution_rate 	33.333333333333
scalar Network300.node20 	rate_of_requesters 	1
scalar Network300.node20 	number_of_resources 	16500
scalar Network300.node20 	time_period 	3
scalar Network300.node20 	number_of_messages 	8
scalar Network300.node20 	discovery_latency 	1548
scalar Network300.node20 	number_of_desired_resources 	20
scalar Network300.node20 	query_homogenity_rate 	33.333333333333
scalar Network300.node20 	qrecord_time 	14403.139836968
scalar Network300.node20 	discovery_resolution_rate 	33.333333333333
scalar Network300.node20 	rate_of_requesters 	1
scalar Network300.node20 	number_of_resources 	16500
scalar Network300.node20 	time_period 	4
scalar Network300.node20 	number_of_messages 	8
scalar Network300.node20 	discovery_latency 	1632
scalar Network300.node20 	number_of_desired_resources 	20
scalar Network300.node20 	query_homogenity_rate 	33.333333333333
scalar Network300.node20 	qrecord_time 	14530.14312929
scalar Network300.node20 	discovery_resolution_rate 	33.333333333333
scalar Network300.node250 	rate_of_requesters 	1
scalar Network300.node250 	number_of_resources 	16500
scalar Network300.node250 	time_period 	3
scalar Network300.node250 	number_of_messages 	12
scalar Network300.node250 	discovery_latency 	1548
scalar Network300.node250 	number_of_desired_resources 	20
scalar Network300.node250 	query_homogenity_rate 	33.333333333333
scalar Network300.node250 	qrecord_time 	14697.188370055
scalar Network300.node250 	discovery_resolution_rate 	33.333333333333
scalar Network300.node50 	rate_of_requesters 	1
scalar Network300.node50 	number_of_resources 	16500
scalar Network300.node50 	time_period 	3
scalar Network300.node50 	number_of_messages 	23
scalar Network300.node50 	discovery_latency 	1428
scalar Network300.node50 	number_of_desired_resources 	20
scalar Network300.node50 	query_homogenity_rate 	33.333333333333
scalar Network300.node50 	qrecord_time 	14718.269670722
scalar Network300.node50 	discovery_resolution_rate 	66.666666666667
scalar Network300.node220 	rate_of_requesters 	1
scalar Network300.node220 	number_of_resources 	16500
scalar Network300.node220 	time_period 	3
scalar Network300.node220 	number_of_messages 	8
scalar Network300.node220 	discovery_latency 	1512
scalar Network300.node220 	number_of_desired_resources 	20
scalar Network300.node220 	query_homogenity_rate 	33.333333333333
scalar Network300.node220 	qrecord_time 	14726.844939833
scalar Network300.node220 	discovery_resolution_rate 	33.333333333333
scalar Network300.node190 	rate_of_requesters 	1
scalar Network300.node190 	number_of_resources 	16500
scalar Network300.node190 	time_period 	7
scalar Network300.node190 	number_of_messages 	3
scalar Network300.node190 	discovery_latency 	1536
scalar Network300.node190 	number_of_desired_resources 	20
scalar Network300.node190 	query_homogenity_rate 	33.333333333333
scalar Network300.node190 	qrecord_time 	14754.722557656
scalar Network300.node190 	discovery_resolution_rate 	33.333333333333
scalar Network300.node50 	rate_of_requesters 	1
scalar Network300.node50 	number_of_resources 	16500
scalar Network300.node50 	time_period 	2
scalar Network300.node50 	number_of_messages 	6
scalar Network300.node50 	discovery_latency 	1620
scalar Network300.node50 	number_of_desired_resources 	20
scalar Network300.node50 	query_homogenity_rate 	33.333333333333
scalar Network300.node50 	qrecord_time 	14857.492753183
scalar Network300.node50 	discovery_resolution_rate 	33.333333333333
scalar Network300.node80 	rate_of_requesters 	1
scalar Network300.node80 	number_of_resources 	16500
scalar Network300.node80 	time_period 	5
scalar Network300.node80 	number_of_messages 	16
scalar Network300.node80 	discovery_latency 	1488
scalar Network300.node80 	number_of_desired_resources 	20
scalar Network300.node80 	query_homogenity_rate 	33.333333333333
scalar Network300.node80 	qrecord_time 	14864.953791282
scalar Network300.node80 	discovery_resolution_rate 	66.666666666667
scalar Network300.node0 	rate_of_requesters 	1
scalar Network300.node0 	number_of_resources 	16500
scalar Network300.node0 	time_period 	4
scalar Network300.node0 	number_of_messages 	6
scalar Network300.node0 	discovery_latency 	1548
scalar Network300.node0 	number_of_desired_resources 	20
scalar Network300.node0 	query_homogenity_rate 	33.333333333333
scalar Network300.node0 	qrecord_time 	14897.48424386
scalar Network300.node0 	discovery_resolution_rate 	33.333333333333
scalar Network300.node10 	rate_of_requesters 	1
scalar Network300.node10 	number_of_resources 	16500
scalar Network300.node10 	time_period 	3
scalar Network300.node10 	number_of_messages 	11
scalar Network300.node10 	discovery_latency 	1572
scalar Network300.node10 	number_of_desired_resources 	20
scalar Network300.node10 	query_homogenity_rate 	33.333333333333
scalar Network300.node10 	qrecord_time 	14930.024208049
scalar Network300.node10 	discovery_resolution_rate 	33.333333333333
scalar Network300.node130 	rate_of_requesters 	1
scalar Network300.node130 	number_of_resources 	16500
scalar Network300.node130 	time_period 	3
scalar Network300.node130 	number_of_messages 	11
scalar Network300.node130 	discovery_latency 	1488
scalar Network300.node130 	number_of_desired_resources 	20
scalar Network300.node130 	query_homogenity_rate 	33.333333333333
scalar Network300.node130 	qrecord_time 	14953.221649435
scalar Network300.node130 	discovery_resolution_rate 	33.333333333333
scalar Network300.node90 	rate_of_requesters 	1
scalar Network300.node90 	number_of_resources 	16500
scalar Network300.node90 	time_period 	5
scalar Network300.node90 	number_of_messages 	10
scalar Network300.node90 	discovery_latency 	1584
scalar Network300.node90 	number_of_desired_resources 	20
scalar Network300.node90 	query_homogenity_rate 	33.333333333333
scalar Network300.node90 	qrecord_time 	15036.307794407
scalar Network300.node90 	discovery_resolution_rate 	33.333333333333
scalar Network300.node230 	rate_of_requesters 	1
scalar Network300.node230 	number_of_resources 	16500
scalar Network300.node230 	time_period 	3
scalar Network300.node230 	number_of_messages 	82
scalar Network300.node230 	discovery_latency 	1620
scalar Network300.node230 	number_of_desired_resources 	20
scalar Network300.node230 	query_homogenity_rate 	33.333333333333
scalar Network300.node230 	qrecord_time 	15051.336728592
scalar Network300.node230 	discovery_resolution_rate 	50
scalar Network300.node30 	rate_of_requesters 	1
scalar Network300.node30 	number_of_resources 	16500
scalar Network300.node30 	time_period 	4
scalar Network300.node30 	number_of_messages 	8
scalar Network300.node30 	discovery_latency 	1536
scalar Network300.node30 	number_of_desired_resources 	20
scalar Network300.node30 	query_homogenity_rate 	33.333333333333
scalar Network300.node30 	qrecord_time 	15145.646253665
scalar Network300.node30 	discovery_resolution_rate 	33.333333333333
scalar Network300.node130 	rate_of_requesters 	1
scalar Network300.node130 	number_of_resources 	16500
scalar Network300.node130 	time_period 	5
scalar Network300.node130 	number_of_messages 	36
scalar Network300.node130 	discovery_latency 	474
scalar Network300.node130 	number_of_desired_resources 	20
scalar Network300.node130 	query_homogenity_rate 	33.333333333333
scalar Network300.node130 	qrecord_time 	15158.489801959
scalar Network300.node130 	discovery_resolution_rate 	100
scalar Network300.node0 	rate_of_requesters 	1
scalar Network300.node0 	number_of_resources 	16500
scalar Network300.node0 	time_period 	5
scalar Network300.node0 	number_of_messages 	6
scalar Network300.node0 	discovery_latency 	1548
scalar Network300.node0 	number_of_desired_resources 	20
scalar Network300.node0 	query_homogenity_rate 	33.333333333333
scalar Network300.node0 	qrecord_time 	15170.401079281
scalar Network300.node0 	discovery_resolution_rate 	33.333333333333
scalar Network300.node170 	rate_of_requesters 	1
scalar Network300.node170 	number_of_resources 	16500
scalar Network300.node170 	time_period 	4
scalar Network300.node170 	number_of_messages 	5
scalar Network300.node170 	discovery_latency 	1548
scalar Network300.node170 	number_of_desired_resources 	20
scalar Network300.node170 	query_homogenity_rate 	33.333333333333
scalar Network300.node170 	qrecord_time 	15333.390509043
scalar Network300.node170 	discovery_resolution_rate 	33.333333333333
scalar Network300.node70 	rate_of_requesters 	1
scalar Network300.node70 	number_of_resources 	16500
scalar Network300.node70 	time_period 	3
scalar Network300.node70 	number_of_messages 	8
scalar Network300.node70 	discovery_latency 	1548
scalar Network300.node70 	number_of_desired_resources 	20
scalar Network300.node70 	query_homogenity_rate 	33.333333333333
scalar Network300.node70 	qrecord_time 	15559.230034869
scalar Network300.node70 	discovery_resolution_rate 	33.333333333333
scalar Network300.node0 	rate_of_requesters 	1
scalar Network300.node0 	number_of_resources 	16500
scalar Network300.node0 	time_period 	6
scalar Network300.node0 	number_of_messages 	22
scalar Network300.node0 	discovery_latency 	1536
scalar Network300.node0 	number_of_desired_resources 	20
scalar Network300.node0 	query_homogenity_rate 	33.333333333333
scalar Network300.node0 	qrecord_time 	15652.542556634
scalar Network300.node0 	discovery_resolution_rate 	66.666666666667
scalar Network300.node90 	rate_of_requesters 	1
scalar Network300.node90 	number_of_resources 	16500
scalar Network300.node90 	time_period 	6
scalar Network300.node90 	number_of_messages 	19
scalar Network300.node90 	discovery_latency 	1476
scalar Network300.node90 	number_of_desired_resources 	20
scalar Network300.node90 	query_homogenity_rate 	33.333333333333
scalar Network300.node90 	qrecord_time 	15769.553946593
scalar Network300.node90 	discovery_resolution_rate 	66.666666666667
scalar Network300.node210 	rate_of_requesters 	1
scalar Network300.node210 	number_of_resources 	16500
scalar Network300.node210 	time_period 	4
scalar Network300.node210 	number_of_messages 	5
scalar Network300.node210 	discovery_latency 	1572
scalar Network300.node210 	number_of_desired_resources 	20
scalar Network300.node210 	query_homogenity_rate 	33.333333333333
scalar Network300.node210 	qrecord_time 	15861.795024287
scalar Network300.node210 	discovery_resolution_rate 	33.333333333333
scalar Network300.node130 	rate_of_requesters 	1
scalar Network300.node130 	number_of_resources 	16500
scalar Network300.node130 	time_period 	4
scalar Network300.node130 	number_of_messages 	11
scalar Network300.node130 	discovery_latency 	1572
scalar Network300.node130 	number_of_desired_resources 	20
scalar Network300.node130 	query_homogenity_rate 	33.333333333333
scalar Network300.node130 	qrecord_time 	15931.455079391
scalar Network300.node130 	discovery_resolution_rate 	33.333333333333
scalar Network300.node160 	rate_of_requesters 	1
scalar Network300.node160 	number_of_resources 	16500
scalar Network300.node160 	time_period 	5
scalar Network300.node160 	number_of_messages 	9
scalar Network300.node160 	discovery_latency 	1512
scalar Network300.node160 	number_of_desired_resources 	20
scalar Network300.node160 	query_homogenity_rate 	33.333333333333
scalar Network300.node160 	qrecord_time 	16010.288964849
scalar Network300.node160 	discovery_resolution_rate 	33.333333333333
scalar Network300.node160 	rate_of_requesters 	1
scalar Network300.node160 	number_of_resources 	16500
scalar Network300.node160 	time_period 	6
scalar Network300.node160 	number_of_messages 	12
scalar Network300.node160 	discovery_latency 	1512
scalar Network300.node160 	number_of_desired_resources 	20
scalar Network300.node160 	query_homogenity_rate 	33.333333333333
scalar Network300.node160 	qrecord_time 	16285.633576669
scalar Network300.node160 	discovery_resolution_rate 	33.333333333333
scalar Network300.node40 	rate_of_requesters 	1
scalar Network300.node40 	number_of_resources 	16500
scalar Network300.node40 	time_period 	5
scalar Network300.node40 	number_of_messages 	4
scalar Network300.node40 	discovery_latency 	1584
scalar Network300.node40 	number_of_desired_resources 	20
scalar Network300.node40 	query_homogenity_rate 	33.333333333333
scalar Network300.node40 	qrecord_time 	16342.031695531
scalar Network300.node40 	discovery_resolution_rate 	33.333333333333
scalar Network300.node280 	rate_of_requesters 	1
scalar Network300.node280 	number_of_resources 	16500
scalar Network300.node280 	time_period 	4
scalar Network300.node280 	number_of_messages 	12
scalar Network300.node280 	discovery_latency 	1560
scalar Network300.node280 	number_of_desired_resources 	20
scalar Network300.node280 	query_homogenity_rate 	33.333333333333
scalar Network300.node280 	qrecord_time 	16375.066553923
scalar Network300.node280 	discovery_resolution_rate 	33.333333333333
scalar Network300.node230 	rate_of_requesters 	1
scalar Network300.node230 	number_of_resources 	16500
scalar Network300.node230 	time_period 	4
scalar Network300.node230 	number_of_messages 	4
scalar Network300.node230 	discovery_latency 	1584
scalar Network300.node230 	number_of_desired_resources 	20
scalar Network300.node230 	query_homogenity_rate 	33.333333333333
scalar Network300.node230 	qrecord_time 	16376.613543442
scalar Network300.node230 	discovery_resolution_rate 	33.333333333333
scalar Network300.node10 	rate_of_requesters 	1
scalar Network300.node10 	number_of_resources 	16500
scalar Network300.node10 	time_period 	4
scalar Network300.node10 	number_of_messages 	39
scalar Network300.node10 	discovery_latency 	432
scalar Network300.node10 	number_of_desired_resources 	20
scalar Network300.node10 	query_homogenity_rate 	33.333333333333
scalar Network300.node10 	qrecord_time 	16474.570823952
scalar Network300.node10 	discovery_resolution_rate 	100
scalar Network300.node270 	rate_of_requesters 	1
scalar Network300.node270 	number_of_resources 	16500
scalar Network300.node270 	time_period 	4
scalar Network300.node270 	number_of_messages 	6
scalar Network300.node270 	discovery_latency 	1572
scalar Network300.node270 	number_of_desired_resources 	20
scalar Network300.node270 	query_homogenity_rate 	33.333333333333
scalar Network300.node270 	qrecord_time 	16503.324835967
scalar Network300.node270 	discovery_resolution_rate 	33.333333333333
scalar Network300.node190 	rate_of_requesters 	1
scalar Network300.node190 	number_of_resources 	16500
scalar Network300.node190 	time_period 	8
scalar Network300.node190 	number_of_messages 	22
scalar Network300.node190 	discovery_latency 	1536
scalar Network300.node190 	number_of_desired_resources 	20
scalar Network300.node190 	query_homogenity_rate 	33.333333333333
scalar Network300.node190 	qrecord_time 	16723.054482147
scalar Network300.node190 	discovery_resolution_rate 	66.666666666667
scalar Network300.node240 	rate_of_requesters 	1
scalar Network300.node240 	number_of_resources 	16500
scalar Network300.node240 	time_period 	3
scalar Network300.node240 	number_of_messages 	22
scalar Network300.node240 	discovery_latency 	1536
scalar Network300.node240 	number_of_desired_resources 	20
scalar Network300.node240 	query_homogenity_rate 	33.333333333333
scalar Network300.node240 	qrecord_time 	16757.004133669
scalar Network300.node240 	discovery_resolution_rate 	33.333333333333
scalar Network300.node110 	rate_of_requesters 	1
scalar Network300.node110 	number_of_resources 	16500
scalar Network300.node110 	time_period 	2
scalar Network300.node110 	number_of_messages 	12
scalar Network300.node110 	discovery_latency 	1560
scalar Network300.node110 	number_of_desired_resources 	20
scalar Network300.node110 	query_homogenity_rate 	33.333333333333
scalar Network300.node110 	qrecord_time 	16870.895547205
scalar Network300.node110 	discovery_resolution_rate 	33.333333333333
scalar Network300.node0 	rate_of_requesters 	1
scalar Network300.node0 	number_of_resources 	16500
scalar Network300.node0 	time_period 	7
scalar Network300.node0 	number_of_messages 	20
scalar Network300.node0 	discovery_latency 	1608
scalar Network300.node0 	number_of_desired_resources 	20
scalar Network300.node0 	query_homogenity_rate 	33.333333333333
scalar Network300.node0 	qrecord_time 	16943.968811071
scalar Network300.node0 	discovery_resolution_rate 	33.333333333333
scalar Network300.node50 	rate_of_requesters 	1
scalar Network300.node50 	number_of_resources 	16500
scalar Network300.node50 	time_period 	4
scalar Network300.node50 	number_of_messages 	4
scalar Network300.node50 	discovery_latency 	1584
scalar Network300.node50 	number_of_desired_resources 	20
scalar Network300.node50 	query_homogenity_rate 	33.333333333333
scalar Network300.node50 	qrecord_time 	16998.376465818
scalar Network300.node50 	discovery_resolution_rate 	33.333333333333
scalar Network300.node290 	rate_of_requesters 	1
scalar Network300.node290 	number_of_resources 	16500
scalar Network300.node290 	time_period 	4
scalar Network300.node290 	number_of_messages 	24
scalar Network300.node290 	discovery_latency 	1596
scalar Network300.node290 	number_of_desired_resources 	20
scalar Network300.node290 	query_homogenity_rate 	33.333333333333
scalar Network300.node290 	qrecord_time 	17026.565996602
scalar Network300.node290 	discovery_resolution_rate 	33.333333333333
scalar Network300.node210 	rate_of_requesters 	1
scalar Network300.node210 	number_of_resources 	16500
scalar Network300.node210 	time_period 	5
scalar Network300.node210 	number_of_messages 	18
scalar Network300.node210 	discovery_latency 	1524
scalar Network300.node210 	number_of_desired_resources 	20
scalar Network300.node210 	query_homogenity_rate 	33.333333333333
scalar Network300.node210 	qrecord_time 	17056.790367197
scalar Network300.node210 	discovery_resolution_rate 	33.333333333333
scalar Network300.node130 	rate_of_requesters 	1
scalar Network300.node130 	number_of_resources 	16500
scalar Network300.node130 	time_period 	6
scalar Network300.node130 	number_of_messages 	43
scalar Network300.node130 	discovery_latency 	1548
scalar Network300.node130 	number_of_desired_resources 	20
scalar Network300.node130 	query_homogenity_rate 	33.333333333333
scalar Network300.node130 	qrecord_time 	17166.39927106
scalar Network300.node130 	discovery_resolution_rate 	33.333333333333
scalar Network300.node140 	rate_of_requesters 	1
scalar Network300.node140 	number_of_resources 	16500
scalar Network300.node140 	time_period 	3
scalar Network300.node140 	number_of_messages 	89
scalar Network300.node140 	discovery_latency 	1644
scalar Network300.node140 	number_of_desired_resources 	20
scalar Network300.node140 	query_homogenity_rate 	33.333333333333
scalar Network300.node140 	qrecord_time 	17229.260189594
scalar Network300.node140 	discovery_resolution_rate 	33.333333333333
scalar Network300.node90 	rate_of_requesters 	1
scalar Network300.node90 	number_of_resources 	16500
scalar Network300.node90 	time_period 	7
scalar Network300.node90 	number_of_messages 	34
scalar Network300.node90 	discovery_latency 	1596
scalar Network300.node90 	number_of_desired_resources 	20
scalar Network300.node90 	query_homogenity_rate 	33.333333333333
scalar Network300.node90 	qrecord_time 	17303.770270374
scalar Network300.node90 	discovery_resolution_rate 	33.333333333333
scalar Network300.node170 	rate_of_requesters 	1
scalar Network300.node170 	number_of_resources 	16500
scalar Network300.node170 	time_period 	5
scalar Network300.node170 	number_of_messages 	17
scalar Network300.node170 	discovery_latency 	1536
scalar Network300.node170 	number_of_desired_resources 	20
scalar Network300.node170 	query_homogenity_rate 	33.333333333333
scalar Network300.node170 	qrecord_time 	17395.613492039
scalar Network300.node170 	discovery_resolution_rate 	33.333333333333
scalar Network300.node80 	rate_of_requesters 	1
scalar Network300.node80 	number_of_resources 	16500
scalar Network300.node80 	time_period 	6
scalar Network300.node80 	number_of_messages 	88
scalar Network300.node80 	discovery_latency 	1716
scalar Network300.node80 	number_of_desired_resources 	20
scalar Network300.node80 	query_homogenity_rate 	33.333333333333
scalar Network300.node80 	qrecord_time 	17558.103387322
scalar Network300.node80 	discovery_resolution_rate 	33.333333333333
scalar Network300.node280 	rate_of_requesters 	1
scalar Network300.node280 	number_of_resources 	16500
scalar Network300.node280 	time_period 	5
scalar Network300.node280 	number_of_messages 	90
scalar Network300.node280 	discovery_latency 	1776
scalar Network300.node280 	number_of_desired_resources 	20
scalar Network300.node280 	query_homogenity_rate 	33.333333333333
scalar Network300.node280 	qrecord_time 	17619.057029336
scalar Network300.node280 	discovery_resolution_rate 	33.333333333333
scalar Network300.node220 	rate_of_requesters 	1
scalar Network300.node220 	number_of_resources 	16500
scalar Network300.node220 	time_period 	4
scalar Network300.node220 	number_of_messages 	33
scalar Network300.node220 	discovery_latency 	1500
scalar Network300.node220 	number_of_desired_resources 	20
scalar Network300.node220 	query_homogenity_rate 	33.333333333333
scalar Network300.node220 	qrecord_time 	17770.993248636
scalar Network300.node220 	discovery_resolution_rate 	66.666666666667
scalar Network300.node100 	rate_of_requesters 	1
scalar Network300.node100 	number_of_resources 	16500
scalar Network300.node100 	time_period 	5
scalar Network300.node100 	number_of_messages 	20
scalar Network300.node100 	discovery_latency 	1524
scalar Network300.node100 	number_of_desired_resources 	20
scalar Network300.node100 	query_homogenity_rate 	33.333333333333
scalar Network300.node100 	qrecord_time 	17828.017709536
scalar Network300.node100 	discovery_resolution_rate 	33.333333333333
scalar Network300.node150 	rate_of_requesters 	1
scalar Network300.node150 	number_of_resources 	16500
scalar Network300.node150 	time_period 	3
scalar Network300.node150 	number_of_messages 	13
scalar Network300.node150 	discovery_latency 	1524
scalar Network300.node150 	number_of_desired_resources 	20
scalar Network300.node150 	query_homogenity_rate 	33.333333333333
scalar Network300.node150 	qrecord_time 	18104.392311968
scalar Network300.node150 	discovery_resolution_rate 	66.666666666667
scalar Network300.node110 	rate_of_requesters 	1
scalar Network300.node110 	number_of_resources 	16500
scalar Network300.node110 	time_period 	3
scalar Network300.node110 	number_of_messages 	20
scalar Network300.node110 	discovery_latency 	180
scalar Network300.node110 	number_of_desired_resources 	20
scalar Network300.node110 	query_homogenity_rate 	33.333333333333
scalar Network300.node110 	qrecord_time 	18104.73552793
scalar Network300.node110 	discovery_resolution_rate 	100
scalar Network300.node210 	rate_of_requesters 	1
scalar Network300.node210 	number_of_resources 	16500
scalar Network300.node210 	time_period 	6
scalar Network300.node210 	number_of_messages 	11
scalar Network300.node210 	discovery_latency 	1560
scalar Network300.node210 	number_of_desired_resources 	20
scalar Network300.node210 	query_homogenity_rate 	33.333333333333
scalar Network300.node210 	qrecord_time 	18158.317886597
scalar Network300.node210 	discovery_resolution_rate 	33.333333333333
scalar Network300.node220 	rate_of_requesters 	1
scalar Network300.node220 	number_of_resources 	16500
scalar Network300.node220 	time_period 	5
scalar Network300.node220 	number_of_messages 	8
scalar Network300.node220 	discovery_latency 	1560
scalar Network300.node220 	number_of_desired_resources 	20
scalar Network300.node220 	query_homogenity_rate 	33.333333333333
scalar Network300.node220 	qrecord_time 	18179.878643391
scalar Network300.node220 	discovery_resolution_rate 	33.333333333333
scalar Network300.node220 	rate_of_requesters 	1
scalar Network300.node220 	number_of_resources 	16500
scalar Network300.node220 	time_period 	6
scalar Network300.node220 	number_of_messages 	25
scalar Network300.node220 	discovery_latency 	228
scalar Network300.node220 	number_of_desired_resources 	20
scalar Network300.node220 	query_homogenity_rate 	33.333333333333
scalar Network300.node220 	qrecord_time 	18314.25730638
scalar Network300.node220 	discovery_resolution_rate 	100
scalar Network300.node290 	rate_of_requesters 	1
scalar Network300.node290 	number_of_resources 	16500
scalar Network300.node290 	time_period 	5
scalar Network300.node290 	number_of_messages 	30
scalar Network300.node290 	discovery_latency 	312
scalar Network300.node290 	number_of_desired_resources 	20
scalar Network300.node290 	query_homogenity_rate 	33.333333333333
scalar Network300.node290 	qrecord_time 	18315.834346217
scalar Network300.node290 	discovery_resolution_rate 	100
scalar Network300.node50 	rate_of_requesters 	1
scalar Network300.node50 	number_of_resources 	16500
scalar Network300.node50 	time_period 	5
scalar Network300.node50 	number_of_messages 	25
scalar Network300.node50 	discovery_latency 	168
scalar Network300.node50 	number_of_desired_resources 	20
scalar Network300.node50 	query_homogenity_rate 	33.333333333333
scalar Network300.node50 	qrecord_time 	18321.279526618
scalar Network300.node50 	discovery_resolution_rate 	100
scalar Network300.node190 	rate_of_requesters 	1
scalar Network300.node190 	number_of_resources 	16500
scalar Network300.node190 	time_period 	9
scalar Network300.node190 	number_of_messages 	3
scalar Network300.node190 	discovery_latency 	1548
scalar Network300.node190 	number_of_desired_resources 	20
scalar Network300.node190 	query_homogenity_rate 	33.333333333333
scalar Network300.node190 	qrecord_time 	18410.718124157
scalar Network300.node190 	discovery_resolution_rate 	33.333333333333
scalar Network300.node0 	rate_of_requesters 	1
scalar Network300.node0 	number_of_resources 	16500
scalar Network300.node0 	time_period 	8
scalar Network300.node0 	number_of_messages 	20
scalar Network300.node0 	discovery_latency 	180
scalar Network300.node0 	number_of_desired_resources 	20
scalar Network300.node0 	query_homogenity_rate 	33.333333333333
scalar Network300.node0 	qrecord_time 	18443.60761629
scalar Network300.node0 	discovery_resolution_rate 	100
scalar Network300.node10 	rate_of_requesters 	1
scalar Network300.node10 	number_of_resources 	16500
scalar Network300.node10 	time_period 	5
scalar Network300.node10 	number_of_messages 	27
scalar Network300.node10 	discovery_latency 	228
scalar Network300.node10 	number_of_desired_resources 	20
scalar Network300.node10 	query_homogenity_rate 	33.333333333333
scalar Network300.node10 	qrecord_time 	18492.401673138
scalar Network300.node10 	discovery_resolution_rate 	100
scalar Network300.node20 	rate_of_requesters 	1
scalar Network300.node20 	number_of_resources 	16500
scalar Network300.node20 	time_period 	5
scalar Network300.node20 	number_of_messages 	8
scalar Network300.node20 	discovery_latency 	1608
scalar Network300.node20 	number_of_desired_resources 	20
scalar Network300.node20 	query_homogenity_rate 	33.333333333333
scalar Network300.node20 	qrecord_time 	18607.601581897
scalar Network300.node20 	discovery_resolution_rate 	33.333333333333
scalar Network300.node40 	rate_of_requesters 	1
scalar Network300.node40 	number_of_resources 	16500
scalar Network300.node40 	time_period 	6
scalar Network300.node40 	number_of_messages 	6
scalar Network300.node40 	discovery_latency 	1536
scalar Network300.node40 	number_of_desired_resources 	20
scalar Network300.node40 	query_homogenity_rate 	33.333333333333
scalar Network300.node40 	qrecord_time 	18652.483862974
scalar Network300.node40 	discovery_resolution_rate 	33.333333333333
scalar Network300.node270 	rate_of_requesters 	1
scalar Network300.node270 	number_of_resources 	16500
scalar Network300.node270 	time_period 	5
scalar Network300.node270 	number_of_messages 	14
scalar Network300.node270 	discovery_latency 	1620
scalar Network300.node270 	number_of_desired_resources 	20
scalar Network300.node270 	query_homogenity_rate 	33.333333333333
scalar Network300.node270 	qrecord_time 	18797.536895593
scalar Network300.node270 	discovery_resolution_rate 	33.333333333333
scalar Network300.node240 	rate_of_requesters 	1
scalar Network300.node240 	number_of_resources 	16500
scalar Network300.node240 	time_period 	4
scalar Network300.node240 	number_of_messages 	15
scalar Network300.node240 	discovery_latency 	1536
scalar Network300.node240 	number_of_desired_resources 	20
scalar Network300.node240 	query_homogenity_rate 	33.333333333333
scalar Network300.node240 	qrecord_time 	19714.911641431
scalar Network300.node240 	discovery_resolution_rate 	66.666666666667
scalar Network300.node20 	rate_of_requesters 	1
scalar Network300.node20 	number_of_resources 	16500
scalar Network300.node20 	time_period 	6
scalar Network300.node20 	number_of_messages 	21
scalar Network300.node20 	discovery_latency 	1536
scalar Network300.node20 	number_of_desired_resources 	20
scalar Network300.node20 	query_homogenity_rate 	33.333333333333
scalar Network300.node20 	qrecord_time 	19841.745296542
scalar Network300.node20 	discovery_resolution_rate 	66.666666666667
scalar Network300.node190 	rate_of_requesters 	1
scalar Network300.node190 	number_of_resources 	16500
scalar Network300.node190 	time_period 	10
scalar Network300.node190 	number_of_messages 	3
scalar Network300.node190 	discovery_latency 	1512
scalar Network300.node190 	number_of_desired_resources 	20
scalar Network300.node190 	query_homogenity_rate 	33.333333333333
scalar Network300.node190 	qrecord_time 	19879.787975629
scalar Network300.node190 	discovery_resolution_rate 	33.333333333333
scalar Network300.node20 	rate_of_requesters 	1
scalar Network300.node20 	number_of_resources 	16500
scalar Network300.node20 	time_period 	7
scalar Network300.node20 	number_of_messages 	5
scalar Network300.node20 	discovery_latency 	1584
scalar Network300.node20 	number_of_desired_resources 	20
scalar Network300.node20 	query_homogenity_rate 	33.333333333333
scalar Network300.node20 	qrecord_time 	20005.505437869
scalar Network300.node20 	discovery_resolution_rate 	33.333333333333
scalar Network300.node250 	rate_of_requesters 	1
scalar Network300.node250 	number_of_resources 	16500
scalar Network300.node250 	time_period 	4
scalar Network300.node250 	number_of_messages 	10
scalar Network300.node250 	discovery_latency 	1560
scalar Network300.node250 	number_of_desired_resources 	20
scalar Network300.node250 	query_homogenity_rate 	33.333333333333
scalar Network300.node250 	qrecord_time 	20183.862566742
scalar Network300.node250 	discovery_resolution_rate 	33.333333333333
scalar Network300.node30 	rate_of_requesters 	1
scalar Network300.node30 	number_of_resources 	16500
scalar Network300.node30 	time_period 	5
scalar Network300.node30 	number_of_messages 	41
scalar Network300.node30 	discovery_latency 	396
scalar Network300.node30 	number_of_desired_resources 	20
scalar Network300.node30 	query_homogenity_rate 	33.333333333333
scalar Network300.node30 	qrecord_time 	20253.686947449
scalar Network300.node30 	discovery_resolution_rate 	100
scalar Network300.node50 	rate_of_requesters 	1
scalar Network300.node50 	number_of_resources 	16500
scalar Network300.node50 	time_period 	6
scalar Network300.node50 	number_of_messages 	6
scalar Network300.node50 	discovery_latency 	1572
scalar Network300.node50 	number_of_desired_resources 	20
scalar Network300.node50 	query_homogenity_rate 	33.333333333333
scalar Network300.node50 	qrecord_time 	20373.589045181
scalar Network300.node50 	discovery_resolution_rate 	33.333333333333
scalar Network300.node100 	rate_of_requesters 	1
scalar Network300.node100 	number_of_resources 	16500
scalar Network300.node100 	time_period 	6
scalar Network300.node100 	number_of_messages 	7
scalar Network300.node100 	discovery_latency 	1536
scalar Network300.node100 	number_of_desired_resources 	20
scalar Network300.node100 	query_homogenity_rate 	33.333333333333
scalar Network300.node100 	qrecord_time 	20552.297233386
scalar Network300.node100 	discovery_resolution_rate 	33.333333333333
scalar Network300.node290 	rate_of_requesters 	1
scalar Network300.node290 	number_of_resources 	16500
scalar Network300.node290 	time_period 	6
scalar Network300.node290 	number_of_messages 	17
scalar Network300.node290 	discovery_latency 	1488
scalar Network300.node290 	number_of_desired_resources 	20
scalar Network300.node290 	query_homogenity_rate 	33.333333333333
scalar Network300.node290 	qrecord_time 	20722.972331982
scalar Network300.node290 	discovery_resolution_rate 	66.666666666667
scalar Network300.node130 	rate_of_requesters 	1
scalar Network300.node130 	number_of_resources 	16500
scalar Network300.node130 	time_period 	7
scalar Network300.node130 	number_of_messages 	8
scalar Network300.node130 	discovery_latency 	1560
scalar Network300.node130 	number_of_desired_resources 	20
scalar Network300.node130 	query_homogenity_rate 	33.333333333333
scalar Network300.node130 	qrecord_time 	20723.348577384
scalar Network300.node130 	discovery_resolution_rate 	33.333333333333
scalar Network300.node210 	rate_of_requesters 	1
scalar Network300.node210 	number_of_resources 	16500
scalar Network300.node210 	time_period 	7
scalar Network300.node210 	number_of_messages 	5
scalar Network300.node210 	discovery_latency 	1572
scalar Network300.node210 	number_of_desired_resources 	20
scalar Network300.node210 	query_homogenity_rate 	33.333333333333
scalar Network300.node210 	qrecord_time 	20932.356794744
scalar Network300.node210 	discovery_resolution_rate 	33.333333333333
scalar Network300.node270 	rate_of_requesters 	1
scalar Network300.node270 	number_of_resources 	16500
scalar Network300.node270 	time_period 	6
scalar Network300.node270 	number_of_messages 	5
scalar Network300.node270 	discovery_latency 	1464
scalar Network300.node270 	number_of_desired_resources 	20
scalar Network300.node270 	query_homogenity_rate 	33.333333333333
scalar Network300.node270 	qrecord_time 	20950.323912969
scalar Network300.node270 	discovery_resolution_rate 	33.333333333333
scalar Network300.node220 	rate_of_requesters 	1
scalar Network300.node220 	number_of_resources 	16500
scalar Network300.node220 	time_period 	7
scalar Network300.node220 	number_of_messages 	6
scalar Network300.node220 	discovery_latency 	1572
scalar Network300.node220 	number_of_desired_resources 	20
scalar Network300.node220 	query_homogenity_rate 	33.333333333333
scalar Network300.node220 	qrecord_time 	20986.264523562
scalar Network300.node220 	discovery_resolution_rate 	33.333333333333
scalar Network300.node210 	rate_of_requesters 	1
scalar Network300.node210 	number_of_resources 	16500
scalar Network300.node210 	time_period 	8
scalar Network300.node210 	number_of_messages 	5
scalar Network300.node210 	discovery_latency 	1572
scalar Network300.node210 	number_of_desired_resources 	20
scalar Network300.node210 	query_homogenity_rate 	33.333333333333
scalar Network300.node210 	qrecord_time 	21025.815935563
scalar Network300.node210 	discovery_resolution_rate 	33.333333333333
scalar Network300.node170 	rate_of_requesters 	1
scalar Network300.node170 	number_of_resources 	16500
scalar Network300.node170 	time_period 	6
scalar Network300.node170 	number_of_messages 	5
scalar Network300.node170 	discovery_latency 	1608
scalar Network300.node170 	number_of_desired_resources 	20
scalar Network300.node170 	query_homogenity_rate 	33.333333333333
scalar Network300.node170 	qrecord_time 	21162.272600609
scalar Network300.node170 	discovery_resolution_rate 	33.333333333333
scalar Network300.node50 	rate_of_requesters 	1
scalar Network300.node50 	number_of_resources 	16500
scalar Network300.node50 	time_period 	7
scalar Network300.node50 	number_of_messages 	4
scalar Network300.node50 	discovery_latency 	1536
scalar Network300.node50 	number_of_desired_resources 	20
scalar Network300.node50 	query_homogenity_rate 	33.333333333333
scalar Network300.node50 	qrecord_time 	21464.960983948
scalar Network300.node50 	discovery_resolution_rate 	33.333333333333
scalar Network300.node180 	rate_of_requesters 	1
scalar Network300.node180 	number_of_resources 	16500
scalar Network300.node180 	time_period 	4
scalar Network300.node180 	number_of_messages 	9
scalar Network300.node180 	discovery_latency 	1452
scalar Network300.node180 	number_of_desired_resources 	20
scalar Network300.node180 	query_homogenity_rate 	33.333333333333
scalar Network300.node180 	qrecord_time 	21782.914824882
scalar Network300.node180 	discovery_resolution_rate 	66.666666666667
scalar Network300.node30 	rate_of_requesters 	1
scalar Network300.node30 	number_of_resources 	16500
scalar Network300.node30 	time_period 	6
scalar Network300.node30 	number_of_messages 	20
scalar Network300.node30 	discovery_latency 	1584
scalar Network300.node30 	number_of_desired_resources 	20
scalar Network300.node30 	query_homogenity_rate 	33.333333333333
scalar Network300.node30 	qrecord_time 	21849.683288418
scalar Network300.node30 	discovery_resolution_rate 	66.666666666667
scalar Network300.node160 	rate_of_requesters 	1
scalar Network300.node160 	number_of_resources 	16500
scalar Network300.node160 	time_period 	7
scalar Network300.node160 	number_of_messages 	41
scalar Network300.node160 	discovery_latency 	456
scalar Network300.node160 	number_of_desired_resources 	20
scalar Network300.node160 	query_homogenity_rate 	33.333333333333
scalar Network300.node160 	qrecord_time 	21990.192432323
scalar Network300.node160 	discovery_resolution_rate 	100
scalar Network300.node70 	rate_of_requesters 	1
scalar Network300.node70 	number_of_resources 	16500
scalar Network300.node70 	time_period 	4
scalar Network300.node70 	number_of_messages 	6
scalar Network300.node70 	discovery_latency 	1620
scalar Network300.node70 	number_of_desired_resources 	20
scalar Network300.node70 	query_homogenity_rate 	33.333333333333
scalar Network300.node70 	qrecord_time 	22002.181194964
scalar Network300.node70 	discovery_resolution_rate 	33.333333333333
scalar Network300.node130 	rate_of_requesters 	1
scalar Network300.node130 	number_of_resources 	16500
scalar Network300.node130 	time_period 	8
scalar Network300.node130 	number_of_messages 	18
scalar Network300.node130 	discovery_latency 	1572
scalar Network300.node130 	number_of_desired_resources 	20
scalar Network300.node130 	query_homogenity_rate 	33.333333333333
scalar Network300.node130 	qrecord_time 	22020.954469233
scalar Network300.node130 	discovery_resolution_rate 	33.333333333333
scalar Network300.node10 	rate_of_requesters 	1
scalar Network300.node10 	number_of_resources 	16500
scalar Network300.node10 	time_period 	6
scalar Network300.node10 	number_of_messages 	7
scalar Network300.node10 	discovery_latency 	1524
scalar Network300.node10 	number_of_desired_resources 	20
scalar Network300.node10 	query_homogenity_rate 	33.333333333333
scalar Network300.node10 	qrecord_time 	22030.033428471
scalar Network300.node10 	discovery_resolution_rate 	33.333333333333
scalar Network300.node90 	rate_of_requesters 	1
[...]
scalar Network300.node150 	number_of_resources 	16500
scalar Network300.node150 	time_period 	7
scalar Network300.node150 	number_of_messages 	7
scalar Network300.node150 	discovery_latency 	1620
scalar Network300.node150 	number_of_desired_resources 	20
scalar Network300.node150 	query_homogenity_rate 	33.333333333333
scalar Network300.node150 	qrecord_time 	38263.283508254
scalar Network300.node150 	discovery_resolution_rate 	33.333333333333
scalar Network300.node60 	rate_of_requesters 	1
scalar Network300.node60 	number_of_resources 	16500
scalar Network300.node60 	time_period 	10
scalar Network300.node60 	number_of_messages 	16
scalar Network300.node60 	discovery_latency 	1584
scalar Network300.node60 	number_of_desired_resources 	20
scalar Network300.node60 	query_homogenity_rate 	33.333333333333
scalar Network300.node60 	qrecord_time 	38301.189958687
scalar Network300.node60 	discovery_resolution_rate 	66.666666666667
scalar Network300.node260 	rate_of_requesters 	1
scalar Network300.node260 	number_of_resources 	16500
scalar Network300.node260 	time_period 	6
scalar Network300.node260 	number_of_messages 	38
scalar Network300.node260 	discovery_latency 	372
scalar Network300.node260 	number_of_desired_resources 	20
scalar Network300.node260 	query_homogenity_rate 	33.333333333333
scalar Network300.node260 	qrecord_time 	38776.58032844
scalar Network300.node260 	discovery_resolution_rate 	100
scalar Network300.node230 	rate_of_requesters 	1
scalar Network300.node230 	number_of_resources 	16500
scalar Network300.node230 	time_period 	6
scalar Network300.node230 	number_of_messages 	17
scalar Network300.node230 	discovery_latency 	1584
scalar Network300.node230 	number_of_desired_resources 	20
scalar Network300.node230 	query_homogenity_rate 	33.333333333333
scalar Network300.node230 	qrecord_time 	39202.346643061
scalar Network300.node230 	discovery_resolution_rate 	66.666666666667
scalar Network300.node30 	rate_of_requesters 	1
scalar Network300.node30 	number_of_resources 	16500
scalar Network300.node30 	time_period 	10
scalar Network300.node30 	number_of_messages 	7
scalar Network300.node30 	discovery_latency 	1632
scalar Network300.node30 	number_of_desired_resources 	20
scalar Network300.node30 	query_homogenity_rate 	33.333333333333
scalar Network300.node30 	qrecord_time 	39217.959502718
scalar Network300.node30 	discovery_resolution_rate 	33.333333333333
scalar Network300.node180 	rate_of_requesters 	1
scalar Network300.node180 	number_of_resources 	16500
scalar Network300.node180 	time_period 	10
scalar Network300.node180 	number_of_messages 	18
scalar Network300.node180 	discovery_latency 	156
scalar Network300.node180 	number_of_desired_resources 	20
scalar Network300.node180 	query_homogenity_rate 	33.333333333333
scalar Network300.node180 	qrecord_time 	39396.218166615
scalar Network300.node180 	discovery_resolution_rate 	100
scalar Network300.node130 	rate_of_requesters 	1
scalar Network300.node130 	number_of_resources 	16500
scalar Network300.node130 	time_period 	10
scalar Network300.node130 	number_of_messages 	13
scalar Network300.node130 	discovery_latency 	1476
scalar Network300.node130 	number_of_desired_resources 	20
scalar Network300.node130 	query_homogenity_rate 	33.333333333333
scalar Network300.node130 	qrecord_time 	39424.486001493
scalar Network300.node130 	discovery_resolution_rate 	66.666666666667
scalar Network300.node240 	rate_of_requesters 	1
scalar Network300.node240 	number_of_resources 	16500
scalar Network300.node240 	time_period 	5
scalar Network300.node240 	number_of_messages 	25
scalar Network300.node240 	discovery_latency 	1596
scalar Network300.node240 	number_of_desired_resources 	20
scalar Network300.node240 	query_homogenity_rate 	33.333333333333
scalar Network300.node240 	qrecord_time 	39897.504069948
scalar Network300.node240 	discovery_resolution_rate 	66.666666666667
scalar Network300.node230 	rate_of_requesters 	1
scalar Network300.node230 	number_of_resources 	16500
scalar Network300.node230 	time_period 	7
scalar Network300.node230 	number_of_messages 	29
scalar Network300.node230 	discovery_latency 	336
scalar Network300.node230 	number_of_desired_resources 	20
scalar Network300.node230 	query_homogenity_rate 	33.333333333333
scalar Network300.node230 	qrecord_time 	40254.415509248
scalar Network300.node230 	discovery_resolution_rate 	100
scalar Network300.node250 	rate_of_requesters 	1
scalar Network300.node250 	number_of_resources 	16500
scalar Network300.node250 	time_period 	8
scalar Network300.node250 	number_of_messages 	32
scalar Network300.node250 	discovery_latency 	336
scalar Network300.node250 	number_of_desired_resources 	20
scalar Network300.node250 	query_homogenity_rate 	33.333333333333
scalar Network300.node250 	qrecord_time 	40356.864036017
scalar Network300.node250 	discovery_resolution_rate 	100
scalar Network300.node240 	rate_of_requesters 	1
scalar Network300.node240 	number_of_resources 	16500
scalar Network300.node240 	time_period 	6
scalar Network300.node240 	number_of_messages 	41
scalar Network300.node240 	discovery_latency 	468
scalar Network300.node240 	number_of_desired_resources 	20
scalar Network300.node240 	query_homogenity_rate 	33.333333333333
scalar Network300.node240 	qrecord_time 	40394.934531067
scalar Network300.node240 	discovery_resolution_rate 	100
scalar Network300.node200 	rate_of_requesters 	1
scalar Network300.node200 	number_of_resources 	16500
scalar Network300.node200 	time_period 	7
scalar Network300.node200 	number_of_messages 	38
scalar Network300.node200 	discovery_latency 	456
scalar Network300.node200 	number_of_desired_resources 	20
scalar Network300.node200 	query_homogenity_rate 	33.333333333333
scalar Network300.node200 	qrecord_time 	40728.755629638
scalar Network300.node200 	discovery_resolution_rate 	100
scalar Network300.node240 	rate_of_requesters 	1
scalar Network300.node240 	number_of_resources 	16500
scalar Network300.node240 	time_period 	7
scalar Network300.node240 	number_of_messages 	7
scalar Network300.node240 	discovery_latency 	1596
scalar Network300.node240 	number_of_desired_resources 	20
scalar Network300.node240 	query_homogenity_rate 	33.333333333333
scalar Network300.node240 	qrecord_time 	41908.976576765
scalar Network300.node240 	discovery_resolution_rate 	33.333333333333
scalar Network300.node150 	rate_of_requesters 	1
scalar Network300.node150 	number_of_resources 	16500
scalar Network300.node150 	time_period 	8
scalar Network300.node150 	number_of_messages 	8
scalar Network300.node150 	discovery_latency 	1644
scalar Network300.node150 	number_of_desired_resources 	20
scalar Network300.node150 	query_homogenity_rate 	33.333333333333
scalar Network300.node150 	qrecord_time 	42049.23130975
scalar Network300.node150 	discovery_resolution_rate 	33.333333333333
scalar Network300.node200 	rate_of_requesters 	1
scalar Network300.node200 	number_of_resources 	16500
scalar Network300.node200 	time_period 	8
scalar Network300.node200 	number_of_messages 	28
scalar Network300.node200 	discovery_latency 	216
scalar Network300.node200 	number_of_desired_resources 	20
scalar Network300.node200 	query_homogenity_rate 	33.333333333333
scalar Network300.node200 	qrecord_time 	42603.181011553
scalar Network300.node200 	discovery_resolution_rate 	100
scalar Network300.node260 	rate_of_requesters 	1
scalar Network300.node260 	number_of_resources 	16500
scalar Network300.node260 	time_period 	8
scalar Network300.node260 	number_of_messages 	33
scalar Network300.node260 	discovery_latency 	384
scalar Network300.node260 	number_of_desired_resources 	20
scalar Network300.node260 	query_homogenity_rate 	33.333333333333
scalar Network300.node260 	qrecord_time 	43079.323320484
scalar Network300.node260 	discovery_resolution_rate 	100
scalar Network300.node100 	rate_of_requesters 	1
scalar Network300.node100 	number_of_resources 	16500
scalar Network300.node100 	time_period 	8
scalar Network300.node100 	number_of_messages 	7
scalar Network300.node100 	discovery_latency 	1644
scalar Network300.node100 	number_of_desired_resources 	20
scalar Network300.node100 	query_homogenity_rate 	33.333333333333
scalar Network300.node100 	qrecord_time 	43270.575866728
scalar Network300.node100 	discovery_resolution_rate 	33.333333333333
scalar Network300.node250 	rate_of_requesters 	1
scalar Network300.node250 	number_of_resources 	16500
scalar Network300.node250 	time_period 	9
scalar Network300.node250 	number_of_messages 	17
scalar Network300.node250 	discovery_latency 	1668
scalar Network300.node250 	number_of_desired_resources 	20
scalar Network300.node250 	query_homogenity_rate 	33.333333333333
scalar Network300.node250 	qrecord_time 	43271.916788538
scalar Network300.node250 	discovery_resolution_rate 	66.666666666667
scalar Network300.node260 	rate_of_requesters 	1
scalar Network300.node260 	number_of_resources 	16500
scalar Network300.node260 	time_period 	7
scalar Network300.node260 	number_of_messages 	7
scalar Network300.node260 	discovery_latency 	1620
scalar Network300.node260 	number_of_desired_resources 	20
scalar Network300.node260 	query_homogenity_rate 	33.333333333333
scalar Network300.node260 	qrecord_time 	43338.406098518
scalar Network300.node260 	discovery_resolution_rate 	33.333333333333
scalar Network300.node110 	rate_of_requesters 	1
scalar Network300.node110 	number_of_resources 	16500
scalar Network300.node110 	time_period 	9
scalar Network300.node110 	number_of_messages 	21
scalar Network300.node110 	discovery_latency 	192
scalar Network300.node110 	number_of_desired_resources 	20
scalar Network300.node110 	query_homogenity_rate 	33.333333333333
scalar Network300.node110 	qrecord_time 	43607.347090957
scalar Network300.node110 	discovery_resolution_rate 	100
scalar Network300.node240 	rate_of_requesters 	1
scalar Network300.node240 	number_of_resources 	16500
scalar Network300.node240 	time_period 	8
scalar Network300.node240 	number_of_messages 	38
scalar Network300.node240 	discovery_latency 	384
scalar Network300.node240 	number_of_desired_resources 	20
scalar Network300.node240 	query_homogenity_rate 	33.333333333333
scalar Network300.node240 	qrecord_time 	43630.222632477
scalar Network300.node240 	discovery_resolution_rate 	100
scalar Network300.node110 	rate_of_requesters 	1
scalar Network300.node110 	number_of_resources 	16500
scalar Network300.node110 	time_period 	10
scalar Network300.node110 	number_of_messages 	21
scalar Network300.node110 	discovery_latency 	191.99999999999
scalar Network300.node110 	number_of_desired_resources 	20
scalar Network300.node110 	query_homogenity_rate 	33.333333333333
scalar Network300.node110 	qrecord_time 	43672.514677229
scalar Network300.node110 	discovery_resolution_rate 	100
scalar Network300.node240 	rate_of_requesters 	1
scalar Network300.node240 	number_of_resources 	16500
scalar Network300.node240 	time_period 	9
scalar Network300.node240 	number_of_messages 	43
scalar Network300.node240 	discovery_latency 	516.00000000001
scalar Network300.node240 	number_of_desired_resources 	20
scalar Network300.node240 	query_homogenity_rate 	33.333333333333
scalar Network300.node240 	qrecord_time 	44581.06622102
scalar Network300.node240 	discovery_resolution_rate 	100
scalar Network300.node100 	rate_of_requesters 	1
scalar Network300.node100 	number_of_resources 	16500
scalar Network300.node100 	time_period 	9
scalar Network300.node100 	number_of_messages 	25
scalar Network300.node100 	discovery_latency 	156
scalar Network300.node100 	number_of_desired_resources 	20
scalar Network300.node100 	query_homogenity_rate 	33.333333333333
scalar Network300.node100 	qrecord_time 	44787.990470972
scalar Network300.node100 	discovery_resolution_rate 	100
scalar Network300.node240 	rate_of_requesters 	1
scalar Network300.node240 	number_of_resources 	16500
scalar Network300.node240 	time_period 	10
scalar Network300.node240 	number_of_messages 	26
scalar Network300.node240 	discovery_latency 	168
scalar Network300.node240 	number_of_desired_resources 	20
scalar Network300.node240 	query_homogenity_rate 	33.333333333333
scalar Network300.node240 	qrecord_time 	45509.197521941
scalar Network300.node240 	discovery_resolution_rate 	100
scalar Network300.node200 	rate_of_requesters 	1
scalar Network300.node200 	number_of_resources 	16500
scalar Network300.node200 	time_period 	9
scalar Network300.node200 	number_of_messages 	32
scalar Network300.node200 	discovery_latency 	456
scalar Network300.node200 	number_of_desired_resources 	20
scalar Network300.node200 	query_homogenity_rate 	33.333333333333
scalar Network300.node200 	qrecord_time 	45892.274630928
scalar Network300.node200 	discovery_resolution_rate 	100
scalar Network300.node230 	rate_of_requesters 	1
scalar Network300.node230 	number_of_resources 	16500
scalar Network300.node230 	time_period 	8
scalar Network300.node230 	number_of_messages 	21
scalar Network300.node230 	discovery_latency 	168.00000000001
scalar Network300.node230 	number_of_desired_resources 	20
scalar Network300.node230 	query_homogenity_rate 	33.333333333333
scalar Network300.node230 	qrecord_time 	46852.433329836
scalar Network300.node230 	discovery_resolution_rate 	100
scalar Network300.node250 	rate_of_requesters 	1
scalar Network300.node250 	number_of_resources 	16500
scalar Network300.node250 	time_period 	10
scalar Network300.node250 	number_of_messages 	22
scalar Network300.node250 	discovery_latency 	1596
scalar Network300.node250 	number_of_desired_resources 	20
scalar Network300.node250 	query_homogenity_rate 	33.333333333333
scalar Network300.node250 	qrecord_time 	47028.625698502
scalar Network300.node250 	discovery_resolution_rate 	66.666666666667
scalar Network300.node260 	rate_of_requesters 	1
scalar Network300.node260 	number_of_resources 	16500
scalar Network300.node260 	time_period 	9
scalar Network300.node260 	number_of_messages 	17
scalar Network300.node260 	discovery_latency 	120
scalar Network300.node260 	number_of_desired_resources 	20
scalar Network300.node260 	query_homogenity_rate 	33.333333333333
scalar Network300.node260 	qrecord_time 	47956.091820533
scalar Network300.node260 	discovery_resolution_rate 	100
scalar Network300.node70 	rate_of_requesters 	1
scalar Network300.node70 	number_of_resources 	16500
scalar Network300.node70 	time_period 	8
scalar Network300.node70 	number_of_messages 	21
scalar Network300.node70 	discovery_latency 	180
scalar Network300.node70 	number_of_desired_resources 	20
scalar Network300.node70 	query_homogenity_rate 	33.333333333333
scalar Network300.node70 	qrecord_time 	49940.058907493
scalar Network300.node70 	discovery_resolution_rate 	100
scalar Network300.node230 	rate_of_requesters 	1
scalar Network300.node230 	number_of_resources 	16500
scalar Network300.node230 	time_period 	9
scalar Network300.node230 	number_of_messages 	20
scalar Network300.node230 	discovery_latency 	156
scalar Network300.node230 	number_of_desired_resources 	20
scalar Network300.node230 	query_homogenity_rate 	33.333333333333
scalar Network300.node230 	qrecord_time 	51407.170758091
scalar Network300.node230 	discovery_resolution_rate 	100
scalar Network300.node70 	rate_of_requesters 	1
scalar Network300.node70 	number_of_resources 	16500
scalar Network300.node70 	time_period 	9
scalar Network300.node70 	number_of_messages 	21
scalar Network300.node70 	discovery_latency 	180
scalar Network300.node70 	number_of_desired_resources 	20
scalar Network300.node70 	query_homogenity_rate 	33.333333333333
scalar Network300.node70 	qrecord_time 	51843.628560218
scalar Network300.node70 	discovery_resolution_rate 	100
scalar Network300.node70 	rate_of_requesters 	1
scalar Network300.node70 	number_of_resources 	16500
scalar Network300.node70 	time_period 	10
scalar Network300.node70 	number_of_messages 	21
scalar Network300.node70 	discovery_latency 	180
scalar Network300.node70 	number_of_desired_resources 	20
scalar Network300.node70 	query_homogenity_rate 	33.333333333333
scalar Network300.node70 	qrecord_time 	53895.43681396
scalar Network300.node70 	discovery_resolution_rate 	100
scalar Network300.node150 	rate_of_requesters 	1
scalar Network300.node150 	number_of_resources 	16500
scalar Network300.node150 	time_period 	9
scalar Network300.node150 	number_of_messages 	17
scalar Network300.node150 	discovery_latency 	120
scalar Network300.node150 	number_of_desired_resources 	20
scalar Network300.node150 	query_homogenity_rate 	33.333333333333
scalar Network300.node150 	qrecord_time 	54289.841762068
scalar Network300.node150 	discovery_resolution_rate 	100
scalar Network300.node230 	rate_of_requesters 	1
scalar Network300.node230 	number_of_resources 	16500
scalar Network300.node230 	time_period 	10
scalar Network300.node230 	number_of_messages 	18
scalar Network300.node230 	discovery_latency 	144
scalar Network300.node230 	number_of_desired_resources 	20
scalar Network300.node230 	query_homogenity_rate 	33.333333333333
scalar Network300.node230 	qrecord_time 	55540.909698636
scalar Network300.node230 	discovery_resolution_rate 	100
scalar Network300.node150 	rate_of_requesters 	1
scalar Network300.node150 	number_of_resources 	16500
scalar Network300.node150 	time_period 	10
scalar Network300.node150 	number_of_messages 	17
scalar Network300.node150 	discovery_latency 	120
scalar Network300.node150 	number_of_desired_resources 	20
scalar Network300.node150 	query_homogenity_rate 	33.333333333333
scalar Network300.node150 	qrecord_time 	57391.562460395
scalar Network300.node150 	discovery_resolution_rate 	100
scalar Network300.node200 	rate_of_requesters 	1
scalar Network300.node200 	number_of_resources 	16500
scalar Network300.node200 	time_period 	10
scalar Network300.node200 	number_of_messages 	23
scalar Network300.node200 	discovery_latency 	215.99999999999
scalar Network300.node200 	number_of_desired_resources 	20
scalar Network300.node200 	query_homogenity_rate 	33.333333333333
scalar Network300.node200 	qrecord_time 	58271.756905819
scalar Network300.node200 	discovery_resolution_rate 	100
scalar Network300.node100 	rate_of_requesters 	1
scalar Network300.node100 	number_of_resources 	16500
scalar Network300.node100 	time_period 	10
scalar Network300.node100 	number_of_messages 	18
scalar Network300.node100 	discovery_latency 	144
scalar Network300.node100 	number_of_desired_resources 	20
scalar Network300.node100 	query_homogenity_rate 	33.333333333333
scalar Network300.node100 	qrecord_time 	58710.684003035
scalar Network300.node100 	discovery_resolution_rate 	100
scalar Network300.node260 	rate_of_requesters 	1
scalar Network300.node260 	number_of_resources 	16500
scalar Network300.node260 	time_period 	10
scalar Network300.node260 	number_of_messages 	17
scalar Network300.node260 	discovery_latency 	120
scalar Network300.node260 	number_of_desired_resources 	20
scalar Network300.node260 	query_homogenity_rate 	33.333333333333
scalar Network300.node260 	qrecord_time 	60124.120104981
scalar Network300.node260 	discovery_resolution_rate 	100
scalar Network300.node140 	rate_of_requesters 	1
scalar Network300.node140 	number_of_resources 	16500
scalar Network300.node140 	time_period 	9
scalar Network300.node140 	number_of_messages 	32
scalar Network300.node140 	discovery_latency 	228
scalar Network300.node140 	number_of_desired_resources 	20
scalar Network300.node140 	query_homogenity_rate 	33.333333333333
scalar Network300.node140 	qrecord_time 	61441.379312087
scalar Network300.node140 	discovery_resolution_rate 	100
scalar Network300.node140 	rate_of_requesters 	1
scalar Network300.node140 	number_of_resources 	16500
scalar Network300.node140 	time_period 	10
scalar Network300.node140 	number_of_messages 	31
scalar Network300.node140 	discovery_latency 	228
scalar Network300.node140 	number_of_desired_resources 	20
scalar Network300.node140 	query_homogenity_rate 	33.333333333333
scalar Network300.node140 	qrecord_time 	64095.637819614
scalar Network300.node140 	discovery_resolution_rate 	100
