version 2
run net400-2-20150716-20:13:41-14407
attr as 1
attr configname net400
attr datetime 20150716-20:13:41
attr dnor 20
attr experiment net400
attr inifile omnetpp.ini
attr iterationvars "$rhdrq=3, $dnor=20, $as=1"
attr iterationvars2 "$rhdrq=3, $dnor=20, $as=1, $repetition=2"
attr measurement "$rhdrq=3, $dnor=20, $as=1"
attr network Network400
attr processid 14407
attr repetition 2
attr replication #2
attr resultdir results
attr rhdrq 3
attr runnumber 2
attr seedset 2

scalar . 	as 	1
scalar . 	dnor 	20
scalar . 	rhdrq 	3
scalar Network400.node130 	rate_of_requesters 	1
scalar Network400.node130 	number_of_resources 	22000
scalar Network400.node130 	time_period 	1
scalar Network400.node130 	number_of_messages 	24
scalar Network400.node130 	discovery_latency 	168
scalar Network400.node130 	number_of_desired_resources 	20
scalar Network400.node130 	query_homogenity_rate 	33.333333333333
scalar Network400.node130 	qrecord_time 	4900
scalar Network400.node130 	discovery_resolution_rate 	100
scalar Network400.node150 	rate_of_requesters 	1
scalar Network400.node150 	number_of_resources 	22000
scalar Network400.node150 	time_period 	1
scalar Network400.node150 	number_of_messages 	29
scalar Network400.node150 	discovery_latency 	258
scalar Network400.node150 	number_of_desired_resources 	20
scalar Network400.node150 	query_homogenity_rate 	33.333333333333
scalar Network400.node150 	qrecord_time 	4924
scalar Network400.node150 	discovery_resolution_rate 	100
scalar Network400.node330 	rate_of_requesters 	1
scalar Network400.node330 	number_of_resources 	22000
scalar Network400.node330 	time_period 	1
scalar Network400.node330 	number_of_messages 	29
scalar Network400.node330 	discovery_latency 	372
scalar Network400.node330 	number_of_desired_resources 	20
scalar Network400.node330 	query_homogenity_rate 	33.333333333333
scalar Network400.node330 	qrecord_time 	5014
scalar Network400.node330 	discovery_resolution_rate 	100
scalar Network400.node100 	rate_of_requesters 	1
scalar Network400.node100 	number_of_resources 	22000
scalar Network400.node100 	time_period 	1
scalar Network400.node100 	number_of_messages 	29
scalar Network400.node100 	discovery_latency 	264
scalar Network400.node100 	number_of_desired_resources 	20
scalar Network400.node100 	query_homogenity_rate 	33.333333333333
scalar Network400.node100 	qrecord_time 	5032
scalar Network400.node100 	discovery_resolution_rate 	100
scalar Network400.node200 	rate_of_requesters 	1
scalar Network400.node200 	number_of_resources 	22000
scalar Network400.node200 	time_period 	1
scalar Network400.node200 	number_of_messages 	33
scalar Network400.node200 	discovery_latency 	360
scalar Network400.node200 	number_of_desired_resources 	20
scalar Network400.node200 	query_homogenity_rate 	33.333333333333
scalar Network400.node200 	qrecord_time 	5044
scalar Network400.node200 	discovery_resolution_rate 	100
scalar Network400.node190 	rate_of_requesters 	1
scalar Network400.node190 	number_of_resources 	22000
scalar Network400.node190 	time_period 	1
scalar Network400.node190 	number_of_messages 	42
scalar Network400.node190 	discovery_latency 	372
scalar Network400.node190 	number_of_desired_resources 	20
scalar Network400.node190 	query_homogenity_rate 	33.333333333333
scalar Network400.node190 	qrecord_time 	5116
scalar Network400.node190 	discovery_resolution_rate 	100
scalar Network400.node260 	rate_of_requesters 	1
scalar Network400.node260 	number_of_resources 	22000
scalar Network400.node260 	time_period 	1
scalar Network400.node260 	number_of_messages 	27
scalar Network400.node260 	discovery_latency 	2154
scalar Network400.node260 	number_of_desired_resources 	20
scalar Network400.node260 	query_homogenity_rate 	33.333333333333
scalar Network400.node260 	qrecord_time 	6850
scalar Network400.node260 	discovery_resolution_rate 	66.666666666667
scalar Network400.node290 	rate_of_requesters 	1
scalar Network400.node290 	number_of_resources 	22000
scalar Network400.node290 	time_period 	1
scalar Network400.node290 	number_of_messages 	35
scalar Network400.node290 	discovery_latency 	2154
scalar Network400.node290 	number_of_desired_resources 	20
scalar Network400.node290 	query_homogenity_rate 	33.333333333333
scalar Network400.node290 	qrecord_time 	6892
scalar Network400.node290 	discovery_resolution_rate 	66.666666666667
scalar Network400.node40 	rate_of_requesters 	1
scalar Network400.node40 	number_of_resources 	22000
scalar Network400.node40 	time_period 	1
scalar Network400.node40 	number_of_messages 	42
scalar Network400.node40 	discovery_latency 	2190
scalar Network400.node40 	number_of_desired_resources 	20
scalar Network400.node40 	query_homogenity_rate 	33.333333333333
scalar Network400.node40 	qrecord_time 	6898
scalar Network400.node40 	discovery_resolution_rate 	66.666666666667
scalar Network400.node180 	rate_of_requesters 	1
scalar Network400.node180 	number_of_resources 	22000
scalar Network400.node180 	time_period 	1
scalar Network400.node180 	number_of_messages 	71
scalar Network400.node180 	discovery_latency 	2190
scalar Network400.node180 	number_of_desired_resources 	20
scalar Network400.node180 	query_homogenity_rate 	33.333333333333
scalar Network400.node180 	qrecord_time 	6916
scalar Network400.node180 	discovery_resolution_rate 	66.666666666667
scalar Network400.node380 	rate_of_requesters 	1
scalar Network400.node380 	number_of_resources 	22000
scalar Network400.node380 	time_period 	1
scalar Network400.node380 	number_of_messages 	32
scalar Network400.node380 	discovery_latency 	2178
scalar Network400.node380 	number_of_desired_resources 	20
scalar Network400.node380 	query_homogenity_rate 	33.333333333333
scalar Network400.node380 	qrecord_time 	6928
scalar Network400.node380 	discovery_resolution_rate 	66.666666666667
scalar Network400.node120 	rate_of_requesters 	1
scalar Network400.node120 	number_of_resources 	22000
scalar Network400.node120 	time_period 	1
scalar Network400.node120 	number_of_messages 	25
scalar Network400.node120 	discovery_latency 	2190
scalar Network400.node120 	number_of_desired_resources 	20
scalar Network400.node120 	query_homogenity_rate 	33.333333333333
scalar Network400.node120 	qrecord_time 	6940
scalar Network400.node120 	discovery_resolution_rate 	66.666666666667
scalar Network400.node0 	rate_of_requesters 	1
scalar Network400.node0 	number_of_resources 	22000
scalar Network400.node0 	time_period 	1
scalar Network400.node0 	number_of_messages 	10
scalar Network400.node0 	discovery_latency 	2238
scalar Network400.node0 	number_of_desired_resources 	20
scalar Network400.node0 	query_homogenity_rate 	33.333333333333
scalar Network400.node0 	qrecord_time 	6958
scalar Network400.node0 	discovery_resolution_rate 	66.666666666667
scalar Network400.node270 	rate_of_requesters 	1
scalar Network400.node270 	number_of_resources 	22000
scalar Network400.node270 	time_period 	1
scalar Network400.node270 	number_of_messages 	26
scalar Network400.node270 	discovery_latency 	2226
scalar Network400.node270 	number_of_desired_resources 	20
scalar Network400.node270 	query_homogenity_rate 	33.333333333333
scalar Network400.node270 	qrecord_time 	6964
scalar Network400.node270 	discovery_resolution_rate 	66.666666666667
scalar Network400.node390 	rate_of_requesters 	1
scalar Network400.node390 	number_of_resources 	22000
scalar Network400.node390 	time_period 	1
scalar Network400.node390 	number_of_messages 	23
scalar Network400.node390 	discovery_latency 	2238
scalar Network400.node390 	number_of_desired_resources 	20
scalar Network400.node390 	query_homogenity_rate 	33.333333333333
scalar Network400.node390 	qrecord_time 	7006
scalar Network400.node390 	discovery_resolution_rate 	66.666666666667
scalar Network400.node310 	rate_of_requesters 	1
scalar Network400.node310 	number_of_resources 	22000
scalar Network400.node310 	time_period 	1
scalar Network400.node310 	number_of_messages 	64
scalar Network400.node310 	discovery_latency 	2358
scalar Network400.node310 	number_of_desired_resources 	20
scalar Network400.node310 	query_homogenity_rate 	33.333333333333
scalar Network400.node310 	qrecord_time 	7048
scalar Network400.node310 	discovery_resolution_rate 	33.333333333333
scalar Network400.node240 	rate_of_requesters 	1
scalar Network400.node240 	number_of_resources 	22000
scalar Network400.node240 	time_period 	1
scalar Network400.node240 	number_of_messages 	129
scalar Network400.node240 	discovery_latency 	2358
scalar Network400.node240 	number_of_desired_resources 	20
scalar Network400.node240 	query_homogenity_rate 	33.333333333333
scalar Network400.node240 	qrecord_time 	7048
scalar Network400.node240 	discovery_resolution_rate 	50
scalar Network400.node60 	rate_of_requesters 	1
scalar Network400.node60 	number_of_resources 	22000
scalar Network400.node60 	time_period 	1
scalar Network400.node60 	number_of_messages 	119
scalar Network400.node60 	discovery_latency 	2382
scalar Network400.node60 	number_of_desired_resources 	20
scalar Network400.node60 	query_homogenity_rate 	33.333333333333
scalar Network400.node60 	qrecord_time 	7048
scalar Network400.node60 	discovery_resolution_rate 	50
scalar Network400.node320 	rate_of_requesters 	1
scalar Network400.node320 	number_of_resources 	22000
scalar Network400.node320 	time_period 	1
scalar Network400.node320 	number_of_messages 	24
scalar Network400.node320 	discovery_latency 	2430
scalar Network400.node320 	number_of_desired_resources 	20
scalar Network400.node320 	query_homogenity_rate 	33.333333333333
scalar Network400.node320 	qrecord_time 	7138
scalar Network400.node320 	discovery_resolution_rate 	66.666666666667
scalar Network400.node170 	rate_of_requesters 	1
scalar Network400.node170 	number_of_resources 	22000
scalar Network400.node170 	time_period 	1
scalar Network400.node170 	number_of_messages 	56
scalar Network400.node170 	discovery_latency 	2262
scalar Network400.node170 	number_of_desired_resources 	20
scalar Network400.node170 	query_homogenity_rate 	33.333333333333
scalar Network400.node170 	qrecord_time 	7138
scalar Network400.node170 	discovery_resolution_rate 	33.333333333333
scalar Network400.node10 	rate_of_requesters 	1
scalar Network400.node10 	number_of_resources 	22000
scalar Network400.node10 	time_period 	1
scalar Network400.node10 	number_of_messages 	35
scalar Network400.node10 	discovery_latency 	2358
scalar Network400.node10 	number_of_desired_resources 	20
scalar Network400.node10 	query_homogenity_rate 	33.333333333333
scalar Network400.node10 	qrecord_time 	7150
scalar Network400.node10 	discovery_resolution_rate 	33.333333333333
scalar Network400.node220 	rate_of_requesters 	1
scalar Network400.node220 	number_of_resources 	22000
scalar Network400.node220 	time_period 	1
scalar Network400.node220 	number_of_messages 	15
scalar Network400.node220 	discovery_latency 	2370
scalar Network400.node220 	number_of_desired_resources 	20
scalar Network400.node220 	query_homogenity_rate 	33.333333333333
scalar Network400.node220 	qrecord_time 	7168
scalar Network400.node220 	discovery_resolution_rate 	33.333333333333
scalar Network400.node300 	rate_of_requesters 	1
scalar Network400.node300 	number_of_resources 	22000
scalar Network400.node300 	time_period 	1
scalar Network400.node300 	number_of_messages 	16
scalar Network400.node300 	discovery_latency 	2430
scalar Network400.node300 	number_of_desired_resources 	20
scalar Network400.node300 	query_homogenity_rate 	33.333333333333
scalar Network400.node300 	qrecord_time 	7180
scalar Network400.node300 	discovery_resolution_rate 	33.333333333333
scalar Network400.node360 	rate_of_requesters 	1
scalar Network400.node360 	number_of_resources 	22000
scalar Network400.node360 	time_period 	1
scalar Network400.node360 	number_of_messages 	18
scalar Network400.node360 	discovery_latency 	2334
scalar Network400.node360 	number_of_desired_resources 	20
scalar Network400.node360 	query_homogenity_rate 	33.333333333333
scalar Network400.node360 	qrecord_time 	7186
scalar Network400.node360 	discovery_resolution_rate 	33.333333333333
scalar Network400.node350 	rate_of_requesters 	1
scalar Network400.node350 	number_of_resources 	22000
scalar Network400.node350 	time_period 	1
scalar Network400.node350 	number_of_messages 	21
scalar Network400.node350 	discovery_latency 	2406
scalar Network400.node350 	number_of_desired_resources 	20
scalar Network400.node350 	query_homogenity_rate 	33.333333333333
scalar Network400.node350 	qrecord_time 	7198
scalar Network400.node350 	discovery_resolution_rate 	33.333333333333
scalar Network400.node230 	rate_of_requesters 	1
scalar Network400.node230 	number_of_resources 	22000
scalar Network400.node230 	time_period 	1
scalar Network400.node230 	number_of_messages 	21
scalar Network400.node230 	discovery_latency 	2418
scalar Network400.node230 	number_of_desired_resources 	20
scalar Network400.node230 	query_homogenity_rate 	33.333333333333
scalar Network400.node230 	qrecord_time 	7210
scalar Network400.node230 	discovery_resolution_rate 	33.333333333333
scalar Network400.node50 	rate_of_requesters 	1
scalar Network400.node50 	number_of_resources 	22000
scalar Network400.node50 	time_period 	1
scalar Network400.node50 	number_of_messages 	6
scalar Network400.node50 	discovery_latency 	2580
scalar Network400.node50 	number_of_desired_resources 	20
scalar Network400.node50 	query_homogenity_rate 	33.333333333333
scalar Network400.node50 	qrecord_time 	7276
scalar Network400.node50 	discovery_resolution_rate 	33.333333333333
scalar Network400.node370 	rate_of_requesters 	1
scalar Network400.node370 	number_of_resources 	22000
scalar Network400.node370 	time_period 	1
scalar Network400.node370 	number_of_messages 	22
scalar Network400.node370 	discovery_latency 	2712
scalar Network400.node370 	number_of_desired_resources 	20
scalar Network400.node370 	query_homogenity_rate 	33.333333333333
scalar Network400.node370 	qrecord_time 	7384
scalar Network400.node370 	discovery_resolution_rate 	66.666666666667
scalar Network400.node160 	rate_of_requesters 	1
scalar Network400.node160 	number_of_resources 	22000
scalar Network400.node160 	time_period 	1
scalar Network400.node160 	number_of_messages 	2
scalar Network400.node160 	discovery_latency 	2676
scalar Network400.node160 	number_of_desired_resources 	20
scalar Network400.node160 	query_homogenity_rate 	33.333333333333
scalar Network400.node160 	qrecord_time 	7390
scalar Network400.node160 	discovery_resolution_rate 	0
scalar Network400.node110 	rate_of_requesters 	1
scalar Network400.node110 	number_of_resources 	22000
scalar Network400.node110 	time_period 	1
scalar Network400.node110 	number_of_messages 	2
scalar Network400.node110 	discovery_latency 	2640
scalar Network400.node110 	number_of_desired_resources 	20
scalar Network400.node110 	query_homogenity_rate 	33.333333333333
scalar Network400.node110 	qrecord_time 	7390
scalar Network400.node110 	discovery_resolution_rate 	0
scalar Network400.node210 	rate_of_requesters 	1
scalar Network400.node210 	number_of_resources 	22000
scalar Network400.node210 	time_period 	1
scalar Network400.node210 	number_of_messages 	10
scalar Network400.node210 	discovery_latency 	2640
scalar Network400.node210 	number_of_desired_resources 	20
scalar Network400.node210 	query_homogenity_rate 	33.333333333333
scalar Network400.node210 	qrecord_time 	7396
scalar Network400.node210 	discovery_resolution_rate 	33.333333333333
scalar Network400.node90 	rate_of_requesters 	1
scalar Network400.node90 	number_of_resources 	22000
scalar Network400.node90 	time_period 	1
scalar Network400.node90 	number_of_messages 	2
scalar Network400.node90 	discovery_latency 	2724
scalar Network400.node90 	number_of_desired_resources 	20
scalar Network400.node90 	query_homogenity_rate 	33.333333333333
scalar Network400.node90 	qrecord_time 	7432
scalar Network400.node90 	discovery_resolution_rate 	0
scalar Network400.node340 	rate_of_requesters 	1
scalar Network400.node340 	number_of_resources 	22000
scalar Network400.node340 	time_period 	1
scalar Network400.node340 	number_of_messages 	9
scalar Network400.node340 	discovery_latency 	2616
scalar Network400.node340 	number_of_desired_resources 	20
scalar Network400.node340 	query_homogenity_rate 	33.333333333333
scalar Network400.node340 	qrecord_time 	7450
scalar Network400.node340 	discovery_resolution_rate 	33.333333333333
scalar Network400.node140 	rate_of_requesters 	1
scalar Network400.node140 	number_of_resources 	22000
scalar Network400.node140 	time_period 	1
scalar Network400.node140 	number_of_messages 	136
scalar Network400.node140 	discovery_latency 	2736
scalar Network400.node140 	number_of_desired_resources 	20
scalar Network400.node140 	query_homogenity_rate 	33.333333333333
scalar Network400.node140 	qrecord_time 	7474
scalar Network400.node140 	discovery_resolution_rate 	16.666666666667
scalar Network400.node250 	rate_of_requesters 	1
scalar Network400.node250 	number_of_resources 	22000
scalar Network400.node250 	time_period 	1
scalar Network400.node250 	number_of_messages 	24
scalar Network400.node250 	discovery_latency 	2784
scalar Network400.node250 	number_of_desired_resources 	20
scalar Network400.node250 	query_homogenity_rate 	33.333333333333
scalar Network400.node250 	qrecord_time 	7474
scalar Network400.node250 	discovery_resolution_rate 	66.666666666667
scalar Network400.node280 	rate_of_requesters 	1
scalar Network400.node280 	number_of_resources 	22000
scalar Network400.node280 	time_period 	1
scalar Network400.node280 	number_of_messages 	0
scalar Network400.node280 	discovery_latency 	2796
scalar Network400.node280 	number_of_desired_resources 	20
scalar Network400.node280 	query_homogenity_rate 	33.333333333333
scalar Network400.node280 	qrecord_time 	7492
scalar Network400.node280 	discovery_resolution_rate 	0
scalar Network400.node20 	rate_of_requesters 	1
scalar Network400.node20 	number_of_resources 	22000
scalar Network400.node20 	time_period 	1
scalar Network400.node20 	number_of_messages 	11
scalar Network400.node20 	discovery_latency 	2700
scalar Network400.node20 	number_of_desired_resources 	20
scalar Network400.node20 	query_homogenity_rate 	33.333333333333
scalar Network400.node20 	qrecord_time 	7498
scalar Network400.node20 	discovery_resolution_rate 	33.333333333333
scalar Network400.node30 	rate_of_requesters 	1
scalar Network400.node30 	number_of_resources 	22000
scalar Network400.node30 	time_period 	1
scalar Network400.node30 	number_of_messages 	2
scalar Network400.node30 	discovery_latency 	2724
scalar Network400.node30 	number_of_desired_resources 	20
scalar Network400.node30 	query_homogenity_rate 	33.333333333333
scalar Network400.node30 	qrecord_time 	7498
scalar Network400.node30 	discovery_resolution_rate 	0
scalar Network400.node70 	rate_of_requesters 	1
scalar Network400.node70 	number_of_resources 	22000
scalar Network400.node70 	time_period 	1
scalar Network400.node70 	number_of_messages 	136
scalar Network400.node70 	discovery_latency 	2712
scalar Network400.node70 	number_of_desired_resources 	20
scalar Network400.node70 	query_homogenity_rate 	33.333333333333
scalar Network400.node70 	qrecord_time 	7516
scalar Network400.node70 	discovery_resolution_rate 	16.666666666667
scalar Network400.node80 	rate_of_requesters 	1
scalar Network400.node80 	number_of_resources 	22000
scalar Network400.node80 	time_period 	1
scalar Network400.node80 	number_of_messages 	6
scalar Network400.node80 	discovery_latency 	2808
scalar Network400.node80 	number_of_desired_resources 	20
scalar Network400.node80 	query_homogenity_rate 	33.333333333333
scalar Network400.node80 	qrecord_time 	7522
scalar Network400.node80 	discovery_resolution_rate 	33.333333333333
scalar Network400.node170 	rate_of_requesters 	1
scalar Network400.node170 	number_of_resources 	22000
scalar Network400.node170 	time_period 	2
scalar Network400.node170 	number_of_messages 	2
scalar Network400.node170 	discovery_latency 	2652
scalar Network400.node170 	number_of_desired_resources 	20
scalar Network400.node170 	query_homogenity_rate 	33.333333333333
scalar Network400.node170 	qrecord_time 	7593.895033222
scalar Network400.node170 	discovery_resolution_rate 	0
scalar Network400.node320 	rate_of_requesters 	1
scalar Network400.node320 	number_of_resources 	22000
scalar Network400.node320 	time_period 	2
scalar Network400.node320 	number_of_messages 	2
scalar Network400.node320 	discovery_latency 	2700
scalar Network400.node320 	number_of_desired_resources 	20
scalar Network400.node320 	query_homogenity_rate 	33.333333333333
scalar Network400.node320 	qrecord_time 	7831.976703253
scalar Network400.node320 	discovery_resolution_rate 	0
scalar Network400.node310 	rate_of_requesters 	1
scalar Network400.node310 	number_of_resources 	22000
scalar Network400.node310 	time_period 	2
scalar Network400.node310 	number_of_messages 	2
scalar Network400.node310 	discovery_latency 	2676
scalar Network400.node310 	number_of_desired_resources 	20
scalar Network400.node310 	query_homogenity_rate 	33.333333333333
scalar Network400.node310 	qrecord_time 	7855.697418129
scalar Network400.node310 	discovery_resolution_rate 	0
scalar Network400.node140 	rate_of_requesters 	1
scalar Network400.node140 	number_of_resources 	22000
scalar Network400.node140 	time_period 	2
scalar Network400.node140 	number_of_messages 	2
scalar Network400.node140 	discovery_latency 	2700
scalar Network400.node140 	number_of_desired_resources 	20
scalar Network400.node140 	query_homogenity_rate 	33.333333333333
scalar Network400.node140 	qrecord_time 	7874.621395905
scalar Network400.node140 	discovery_resolution_rate 	0
scalar Network400.node210 	rate_of_requesters 	1
scalar Network400.node210 	number_of_resources 	22000
scalar Network400.node210 	time_period 	2
scalar Network400.node210 	number_of_messages 	2
scalar Network400.node210 	discovery_latency 	2712
scalar Network400.node210 	number_of_desired_resources 	20
scalar Network400.node210 	query_homogenity_rate 	33.333333333333
scalar Network400.node210 	qrecord_time 	8255.927118708
scalar Network400.node210 	discovery_resolution_rate 	0
scalar Network400.node160 	rate_of_requesters 	1
scalar Network400.node160 	number_of_resources 	22000
scalar Network400.node160 	time_period 	2
scalar Network400.node160 	number_of_messages 	2
scalar Network400.node160 	discovery_latency 	2712
scalar Network400.node160 	number_of_desired_resources 	20
scalar Network400.node160 	query_homogenity_rate 	33.333333333333
scalar Network400.node160 	qrecord_time 	8273.882353437
scalar Network400.node160 	discovery_resolution_rate 	0
scalar Network400.node360 	rate_of_requesters 	1
scalar Network400.node360 	number_of_resources 	22000
scalar Network400.node360 	time_period 	2
scalar Network400.node360 	number_of_messages 	2
scalar Network400.node360 	discovery_latency 	2784
scalar Network400.node360 	number_of_desired_resources 	20
scalar Network400.node360 	query_homogenity_rate 	33.333333333333
scalar Network400.node360 	qrecord_time 	8565.139215305
scalar Network400.node360 	discovery_resolution_rate 	0
scalar Network400.node0 	rate_of_requesters 	1
scalar Network400.node0 	number_of_resources 	22000
scalar Network400.node0 	time_period 	2
scalar Network400.node0 	number_of_messages 	0
scalar Network400.node0 	discovery_latency 	2628
scalar Network400.node0 	number_of_desired_resources 	20
scalar Network400.node0 	query_homogenity_rate 	33.333333333333
scalar Network400.node0 	qrecord_time 	8857.326928443
scalar Network400.node0 	discovery_resolution_rate 	0
scalar Network400.node60 	rate_of_requesters 	1
scalar Network400.node60 	number_of_resources 	22000
scalar Network400.node60 	time_period 	2
scalar Network400.node60 	number_of_messages 	2
scalar Network400.node60 	discovery_latency 	2556
scalar Network400.node60 	number_of_desired_resources 	20
scalar Network400.node60 	query_homogenity_rate 	33.333333333333
scalar Network400.node60 	qrecord_time 	8930.625470213
scalar Network400.node60 	discovery_resolution_rate 	0
scalar Network400.node210 	rate_of_requesters 	1
scalar Network400.node210 	number_of_resources 	22000
scalar Network400.node210 	time_period 	3
scalar Network400.node210 	number_of_messages 	2
scalar Network400.node210 	discovery_latency 	2556
scalar Network400.node210 	number_of_desired_resources 	20
scalar Network400.node210 	query_homogenity_rate 	33.333333333333
scalar Network400.node210 	qrecord_time 	9105.430019593
scalar Network400.node210 	discovery_resolution_rate 	0
scalar Network400.node230 	rate_of_requesters 	1
scalar Network400.node230 	number_of_resources 	22000
scalar Network400.node230 	time_period 	2
scalar Network400.node230 	number_of_messages 	70
scalar Network400.node230 	discovery_latency 	924
scalar Network400.node230 	number_of_desired_resources 	20
scalar Network400.node230 	query_homogenity_rate 	33.333333333333
scalar Network400.node230 	qrecord_time 	9140.157769504
scalar Network400.node230 	discovery_resolution_rate 	100
scalar Network400.node150 	rate_of_requesters 	1
scalar Network400.node150 	number_of_resources 	22000
scalar Network400.node150 	time_period 	2
scalar Network400.node150 	number_of_messages 	2
scalar Network400.node150 	discovery_latency 	2652
scalar Network400.node150 	number_of_desired_resources 	20
scalar Network400.node150 	query_homogenity_rate 	33.333333333333
scalar Network400.node150 	qrecord_time 	9431.952165842
scalar Network400.node150 	discovery_resolution_rate 	0
scalar Network400.node350 	rate_of_requesters 	1
scalar Network400.node350 	number_of_resources 	22000
scalar Network400.node350 	time_period 	2
scalar Network400.node350 	number_of_messages 	2
scalar Network400.node350 	discovery_latency 	2640
scalar Network400.node350 	number_of_desired_resources 	20
scalar Network400.node350 	query_homogenity_rate 	33.333333333333
scalar Network400.node350 	qrecord_time 	9486.73276698
scalar Network400.node350 	discovery_resolution_rate 	0
scalar Network400.node340 	rate_of_requesters 	1
scalar Network400.node340 	number_of_resources 	22000
scalar Network400.node340 	time_period 	2
scalar Network400.node340 	number_of_messages 	2
scalar Network400.node340 	discovery_latency 	2628
scalar Network400.node340 	number_of_desired_resources 	20
scalar Network400.node340 	query_homogenity_rate 	33.333333333333
scalar Network400.node340 	qrecord_time 	9549.1309134
scalar Network400.node340 	discovery_resolution_rate 	0
scalar Network400.node180 	rate_of_requesters 	1
scalar Network400.node180 	number_of_resources 	22000
scalar Network400.node180 	time_period 	2
scalar Network400.node180 	number_of_messages 	2
scalar Network400.node180 	discovery_latency 	2712
scalar Network400.node180 	number_of_desired_resources 	20
scalar Network400.node180 	query_homogenity_rate 	33.333333333333
scalar Network400.node180 	qrecord_time 	9591.24132549
scalar Network400.node180 	discovery_resolution_rate 	0
scalar Network400.node260 	rate_of_requesters 	1
scalar Network400.node260 	number_of_resources 	22000
scalar Network400.node260 	time_period 	2
scalar Network400.node260 	number_of_messages 	0
scalar Network400.node260 	discovery_latency 	2616
scalar Network400.node260 	number_of_desired_resources 	20
scalar Network400.node260 	query_homogenity_rate 	33.333333333333
scalar Network400.node260 	qrecord_time 	9786.019955068
scalar Network400.node260 	discovery_resolution_rate 	0
scalar Network400.node110 	rate_of_requesters 	1
scalar Network400.node110 	number_of_resources 	22000
scalar Network400.node110 	time_period 	2
scalar Network400.node110 	number_of_messages 	2
scalar Network400.node110 	discovery_latency 	2568
scalar Network400.node110 	number_of_desired_resources 	20
scalar Network400.node110 	query_homogenity_rate 	33.333333333333
scalar Network400.node110 	qrecord_time 	9804.975512041
scalar Network400.node110 	discovery_resolution_rate 	0
scalar Network400.node20 	rate_of_requesters 	1
scalar Network400.node20 	number_of_resources 	22000
scalar Network400.node20 	time_period 	2
scalar Network400.node20 	number_of_messages 	38
scalar Network400.node20 	discovery_latency 	2514
scalar Network400.node20 	number_of_desired_resources 	20
scalar Network400.node20 	query_homogenity_rate 	33.333333333333
scalar Network400.node20 	qrecord_time 	9843.181088882
scalar Network400.node20 	discovery_resolution_rate 	33.333333333333
scalar Network400.node250 	rate_of_requesters 	1
scalar Network400.node250 	number_of_resources 	22000
scalar Network400.node250 	time_period 	2
scalar Network400.node250 	number_of_messages 	2
scalar Network400.node250 	discovery_latency 	2688
scalar Network400.node250 	number_of_desired_resources 	20
scalar Network400.node250 	query_homogenity_rate 	33.333333333333
scalar Network400.node250 	qrecord_time 	10145.173325391
scalar Network400.node250 	discovery_resolution_rate 	0
scalar Network400.node190 	rate_of_requesters 	1
scalar Network400.node190 	number_of_resources 	22000
scalar Network400.node190 	time_period 	2
scalar Network400.node190 	number_of_messages 	26
scalar Network400.node190 	discovery_latency 	2664
scalar Network400.node190 	number_of_desired_resources 	20
scalar Network400.node190 	query_homogenity_rate 	33.333333333333
scalar Network400.node190 	qrecord_time 	10266.518967057
scalar Network400.node190 	discovery_resolution_rate 	66.666666666667
scalar Network400.node70 	rate_of_requesters 	1
scalar Network400.node70 	number_of_resources 	22000
scalar Network400.node70 	time_period 	2
scalar Network400.node70 	number_of_messages 	18
scalar Network400.node70 	discovery_latency 	126
scalar Network400.node70 	number_of_desired_resources 	20
scalar Network400.node70 	query_homogenity_rate 	33.333333333333
scalar Network400.node70 	qrecord_time 	10468.221751409
scalar Network400.node70 	discovery_resolution_rate 	100
scalar Network400.node100 	rate_of_requesters 	1
scalar Network400.node100 	number_of_resources 	22000
scalar Network400.node100 	time_period 	2
scalar Network400.node100 	number_of_messages 	2
scalar Network400.node100 	discovery_latency 	2808
scalar Network400.node100 	number_of_desired_resources 	20
scalar Network400.node100 	query_homogenity_rate 	33.333333333333
scalar Network400.node100 	qrecord_time 	10519.448856887
scalar Network400.node100 	discovery_resolution_rate 	0
scalar Network400.node0 	rate_of_requesters 	1
scalar Network400.node0 	number_of_resources 	22000
scalar Network400.node0 	time_period 	3
scalar Network400.node0 	number_of_messages 	44
scalar Network400.node0 	discovery_latency 	2700
scalar Network400.node0 	number_of_desired_resources 	20
scalar Network400.node0 	query_homogenity_rate 	33.333333333333
scalar Network400.node0 	qrecord_time 	10613.945918396
scalar Network400.node0 	discovery_resolution_rate 	33.333333333333
scalar Network400.node240 	rate_of_requesters 	1
scalar Network400.node240 	number_of_resources 	22000
scalar Network400.node240 	time_period 	2
scalar Network400.node240 	number_of_messages 	73
scalar Network400.node240 	discovery_latency 	2178
scalar Network400.node240 	number_of_desired_resources 	20
scalar Network400.node240 	query_homogenity_rate 	33.333333333333
scalar Network400.node240 	qrecord_time 	10770.342365882
scalar Network400.node240 	discovery_resolution_rate 	66.666666666667
scalar Network400.node300 	rate_of_requesters 	1
scalar Network400.node300 	number_of_resources 	22000
scalar Network400.node300 	time_period 	2
scalar Network400.node300 	number_of_messages 	41
scalar Network400.node300 	discovery_latency 	2106
scalar Network400.node300 	number_of_desired_resources 	20
scalar Network400.node300 	query_homogenity_rate 	33.333333333333
scalar Network400.node300 	qrecord_time 	10830.471053101
scalar Network400.node300 	discovery_resolution_rate 	66.666666666667
scalar Network400.node20 	rate_of_requesters 	1
scalar Network400.node20 	number_of_resources 	22000
scalar Network400.node20 	time_period 	3
scalar Network400.node20 	number_of_messages 	51
scalar Network400.node20 	discovery_latency 	2298
scalar Network400.node20 	number_of_desired_resources 	20
scalar Network400.node20 	query_homogenity_rate 	33.333333333333
scalar Network400.node20 	qrecord_time 	10912.786980731
scalar Network400.node20 	discovery_resolution_rate 	33.333333333333
scalar Network400.node320 	rate_of_requesters 	1
scalar Network400.node320 	number_of_resources 	22000
scalar Network400.node320 	time_period 	3
scalar Network400.node320 	number_of_messages 	72
scalar Network400.node320 	discovery_latency 	2154
scalar Network400.node320 	number_of_desired_resources 	20
scalar Network400.node320 	query_homogenity_rate 	33.333333333333
scalar Network400.node320 	qrecord_time 	10965.77199253
scalar Network400.node320 	discovery_resolution_rate 	66.666666666667
scalar Network400.node50 	rate_of_requesters 	1
scalar Network400.node50 	number_of_resources 	22000
scalar Network400.node50 	time_period 	2
scalar Network400.node50 	number_of_messages 	20
scalar Network400.node50 	discovery_latency 	2466
scalar Network400.node50 	number_of_desired_resources 	20
scalar Network400.node50 	query_homogenity_rate 	33.333333333333
scalar Network400.node50 	qrecord_time 	11024.199844488
scalar Network400.node50 	discovery_resolution_rate 	66.666666666667
scalar Network400.node80 	rate_of_requesters 	1
scalar Network400.node80 	number_of_resources 	22000
scalar Network400.node80 	time_period 	2
scalar Network400.node80 	number_of_messages 	23
scalar Network400.node80 	discovery_latency 	2334
scalar Network400.node80 	number_of_desired_resources 	20
scalar Network400.node80 	query_homogenity_rate 	33.333333333333
scalar Network400.node80 	qrecord_time 	11048.738082432
scalar Network400.node80 	discovery_resolution_rate 	33.333333333333
scalar Network400.node210 	rate_of_requesters 	1
scalar Network400.node210 	number_of_resources 	22000
scalar Network400.node210 	time_period 	4
scalar Network400.node210 	number_of_messages 	22
scalar Network400.node210 	discovery_latency 	2082
scalar Network400.node210 	number_of_desired_resources 	20
scalar Network400.node210 	query_homogenity_rate 	33.333333333333
scalar Network400.node210 	qrecord_time 	11294.136956281
scalar Network400.node210 	discovery_resolution_rate 	66.666666666667
scalar Network400.node150 	rate_of_requesters 	1
scalar Network400.node150 	number_of_resources 	22000
scalar Network400.node150 	time_period 	3
scalar Network400.node150 	number_of_messages 	184
scalar Network400.node150 	discovery_latency 	2544
scalar Network400.node150 	number_of_desired_resources 	20
scalar Network400.node150 	query_homogenity_rate 	33.333333333333
scalar Network400.node150 	qrecord_time 	11302.375348087
scalar Network400.node150 	discovery_resolution_rate 	50
scalar Network400.node210 	rate_of_requesters 	1
scalar Network400.node210 	number_of_resources 	22000
scalar Network400.node210 	time_period 	5
scalar Network400.node210 	number_of_messages 	79
scalar Network400.node210 	discovery_latency 	960
scalar Network400.node210 	number_of_desired_resources 	20
scalar Network400.node210 	query_homogenity_rate 	33.333333333333
scalar Network400.node210 	qrecord_time 	11307.218052077
scalar Network400.node210 	discovery_resolution_rate 	100
scalar Network400.node0 	rate_of_requesters 	1
scalar Network400.node0 	number_of_resources 	22000
scalar Network400.node0 	time_period 	4
scalar Network400.node0 	number_of_messages 	79
scalar Network400.node0 	discovery_latency 	2382
scalar Network400.node0 	number_of_desired_resources 	20
scalar Network400.node0 	query_homogenity_rate 	33.333333333333
scalar Network400.node0 	qrecord_time 	11344.184744507
scalar Network400.node0 	discovery_resolution_rate 	66.666666666667
scalar Network400.node290 	rate_of_requesters 	1
scalar Network400.node290 	number_of_resources 	22000
scalar Network400.node290 	time_period 	2
scalar Network400.node290 	number_of_messages 	7
scalar Network400.node290 	discovery_latency 	2616
scalar Network400.node290 	number_of_desired_resources 	20
scalar Network400.node290 	query_homogenity_rate 	33.333333333333
scalar Network400.node290 	qrecord_time 	11362.933624301
scalar Network400.node290 	discovery_resolution_rate 	33.333333333333
scalar Network400.node40 	rate_of_requesters 	1
scalar Network400.node40 	number_of_resources 	22000
scalar Network400.node40 	time_period 	2
scalar Network400.node40 	number_of_messages 	37
scalar Network400.node40 	discovery_latency 	2142
scalar Network400.node40 	number_of_desired_resources 	20
scalar Network400.node40 	query_homogenity_rate 	33.333333333333
scalar Network400.node40 	qrecord_time 	11391.49761315
scalar Network400.node40 	discovery_resolution_rate 	66.666666666667
scalar Network400.node310 	rate_of_requesters 	1
scalar Network400.node310 	number_of_resources 	22000
scalar Network400.node310 	time_period 	3
scalar Network400.node310 	number_of_messages 	134
scalar Network400.node310 	discovery_latency 	2130
scalar Network400.node310 	number_of_desired_resources 	20
scalar Network400.node310 	query_homogenity_rate 	33.333333333333
scalar Network400.node310 	qrecord_time 	11411.155870736
scalar Network400.node310 	discovery_resolution_rate 	83.333333333333
scalar Network400.node380 	rate_of_requesters 	1
scalar Network400.node380 	number_of_resources 	22000
scalar Network400.node380 	time_period 	2
scalar Network400.node380 	number_of_messages 	12
scalar Network400.node380 	discovery_latency 	2346
scalar Network400.node380 	number_of_desired_resources 	20
scalar Network400.node380 	query_homogenity_rate 	33.333333333333
scalar Network400.node380 	qrecord_time 	11703.940469868
scalar Network400.node380 	discovery_resolution_rate 	33.333333333333
scalar Network400.node230 	rate_of_requesters 	1
scalar Network400.node230 	number_of_resources 	22000
scalar Network400.node230 	time_period 	3
scalar Network400.node230 	number_of_messages 	20
scalar Network400.node230 	discovery_latency 	2370
scalar Network400.node230 	number_of_desired_resources 	20
scalar Network400.node230 	query_homogenity_rate 	33.333333333333
scalar Network400.node230 	qrecord_time 	11765.248060099
scalar Network400.node230 	discovery_resolution_rate 	66.666666666667
scalar Network400.node170 	rate_of_requesters 	1
scalar Network400.node170 	number_of_resources 	22000
scalar Network400.node170 	time_period 	3
scalar Network400.node170 	number_of_messages 	53
scalar Network400.node170 	discovery_latency 	2394
scalar Network400.node170 	number_of_desired_resources 	20
scalar Network400.node170 	query_homogenity_rate 	33.333333333333
scalar Network400.node170 	qrecord_time 	11806.482591624
scalar Network400.node170 	discovery_resolution_rate 	33.333333333333
scalar Network400.node310 	rate_of_requesters 	1
scalar Network400.node310 	number_of_resources 	22000
scalar Network400.node310 	time_period 	4
scalar Network400.node310 	number_of_messages 	2
scalar Network400.node310 	discovery_latency 	2556
scalar Network400.node310 	number_of_desired_resources 	20
scalar Network400.node310 	query_homogenity_rate 	33.333333333333
scalar Network400.node310 	qrecord_time 	11960.729123514
scalar Network400.node310 	discovery_resolution_rate 	0
scalar Network400.node10 	rate_of_requesters 	1
scalar Network400.node10 	number_of_resources 	22000
scalar Network400.node10 	time_period 	2
scalar Network400.node10 	number_of_messages 	2
scalar Network400.node10 	discovery_latency 	2616
scalar Network400.node10 	number_of_desired_resources 	20
scalar Network400.node10 	query_homogenity_rate 	33.333333333333
scalar Network400.node10 	qrecord_time 	12108.362681891
scalar Network400.node10 	discovery_resolution_rate 	0
scalar Network400.node0 	rate_of_requesters 	1
scalar Network400.node0 	number_of_resources 	22000
scalar Network400.node0 	time_period 	5
scalar Network400.node0 	number_of_messages 	134
scalar Network400.node0 	discovery_latency 	2604
scalar Network400.node0 	number_of_desired_resources 	20
scalar Network400.node0 	query_homogenity_rate 	33.333333333333
scalar Network400.node0 	qrecord_time 	12153.867850992
scalar Network400.node0 	discovery_resolution_rate 	16.666666666667
scalar Network400.node350 	rate_of_requesters 	1
scalar Network400.node350 	number_of_resources 	22000
scalar Network400.node350 	time_period 	3
scalar Network400.node350 	number_of_messages 	2
scalar Network400.node350 	discovery_latency 	2676
scalar Network400.node350 	number_of_desired_resources 	20
scalar Network400.node350 	query_homogenity_rate 	33.333333333333
scalar Network400.node350 	qrecord_time 	12188.063065641
scalar Network400.node350 	discovery_resolution_rate 	0
scalar Network400.node290 	rate_of_requesters 	1
scalar Network400.node290 	number_of_resources 	22000
scalar Network400.node290 	time_period 	3
scalar Network400.node290 	number_of_messages 	11
scalar Network400.node290 	discovery_latency 	2580
scalar Network400.node290 	number_of_desired_resources 	20
scalar Network400.node290 	query_homogenity_rate 	33.333333333333
scalar Network400.node290 	qrecord_time 	12289.491122019
scalar Network400.node290 	discovery_resolution_rate 	33.333333333333
scalar Network400.node130 	rate_of_requesters 	1
scalar Network400.node130 	number_of_resources 	22000
scalar Network400.node130 	time_period 	2
scalar Network400.node130 	number_of_messages 	2
scalar Network400.node130 	discovery_latency 	2760
scalar Network400.node130 	number_of_desired_resources 	20
scalar Network400.node130 	query_homogenity_rate 	33.333333333333
scalar Network400.node130 	qrecord_time 	12342.873485465
scalar Network400.node130 	discovery_resolution_rate 	0
scalar Network400.node180 	rate_of_requesters 	1
scalar Network400.node180 	number_of_resources 	22000
scalar Network400.node180 	time_period 	3
scalar Network400.node180 	number_of_messages 	99
scalar Network400.node180 	discovery_latency 	1206
scalar Network400.node180 	number_of_desired_resources 	20
scalar Network400.node180 	query_homogenity_rate 	33.333333333333
scalar Network400.node180 	qrecord_time 	12371.921040083
scalar Network400.node180 	discovery_resolution_rate 	100
scalar Network400.node220 	rate_of_requesters 	1
scalar Network400.node220 	number_of_resources 	22000
scalar Network400.node220 	time_period 	2
scalar Network400.node220 	number_of_messages 	12
scalar Network400.node220 	discovery_latency 	2700
scalar Network400.node220 	number_of_desired_resources 	20
scalar Network400.node220 	query_homogenity_rate 	33.333333333333
scalar Network400.node220 	qrecord_time 	12531.773642117
scalar Network400.node220 	discovery_resolution_rate 	33.333333333333
scalar Network400.node110 	rate_of_requesters 	1
scalar Network400.node110 	number_of_resources 	22000
scalar Network400.node110 	time_period 	3
scalar Network400.node110 	number_of_messages 	2
scalar Network400.node110 	discovery_latency 	2688
scalar Network400.node110 	number_of_desired_resources 	20
scalar Network400.node110 	query_homogenity_rate 	33.333333333333
scalar Network400.node110 	qrecord_time 	12534.740121523
scalar Network400.node110 	discovery_resolution_rate 	0
scalar Network400.node110 	rate_of_requesters 	1
scalar Network400.node110 	number_of_resources 	22000
scalar Network400.node110 	time_period 	4
scalar Network400.node110 	number_of_messages 	2
scalar Network400.node110 	discovery_latency 	2616
scalar Network400.node110 	number_of_desired_resources 	20
scalar Network400.node110 	query_homogenity_rate 	33.333333333333
scalar Network400.node110 	qrecord_time 	12581.123281471
scalar Network400.node110 	discovery_resolution_rate 	0
scalar Network400.node200 	rate_of_requesters 	1
scalar Network400.node200 	number_of_resources 	22000
scalar Network400.node200 	time_period 	2
scalar Network400.node200 	number_of_messages 	20
scalar Network400.node200 	discovery_latency 	2370
scalar Network400.node200 	number_of_desired_resources 	20
scalar Network400.node200 	query_homogenity_rate 	33.333333333333
scalar Network400.node200 	qrecord_time 	12756.940854599
scalar Network400.node200 	discovery_resolution_rate 	66.666666666667
scalar Network400.node60 	rate_of_requesters 	1
scalar Network400.node60 	number_of_resources 	22000
scalar Network400.node60 	time_period 	3
scalar Network400.node60 	number_of_messages 	37
scalar Network400.node60 	discovery_latency 	2178
scalar Network400.node60 	number_of_desired_resources 	20
scalar Network400.node60 	query_homogenity_rate 	33.333333333333
scalar Network400.node60 	qrecord_time 	13061.426081651
scalar Network400.node60 	discovery_resolution_rate 	66.666666666667
scalar Network400.node20 	rate_of_requesters 	1
scalar Network400.node20 	number_of_resources 	22000
scalar Network400.node20 	time_period 	4
scalar Network400.node20 	number_of_messages 	2
scalar Network400.node20 	discovery_latency 	2676
scalar Network400.node20 	number_of_desired_resources 	20
scalar Network400.node20 	query_homogenity_rate 	33.333333333333
scalar Network400.node20 	qrecord_time 	13102.865893144
scalar Network400.node20 	discovery_resolution_rate 	0
scalar Network400.node350 	rate_of_requesters 	1
scalar Network400.node350 	number_of_resources 	22000
scalar Network400.node350 	time_period 	4
scalar Network400.node350 	number_of_messages 	33
scalar Network400.node350 	discovery_latency 	2118
scalar Network400.node350 	number_of_desired_resources 	20
scalar Network400.node350 	query_homogenity_rate 	33.333333333333
scalar Network400.node350 	qrecord_time 	13104.301783947
scalar Network400.node350 	discovery_resolution_rate 	66.666666666667
scalar Network400.node250 	rate_of_requesters 	1
scalar Network400.node250 	number_of_resources 	22000
scalar Network400.node250 	time_period 	3
scalar Network400.node250 	number_of_messages 	2
scalar Network400.node250 	discovery_latency 	2652
scalar Network400.node250 	number_of_desired_resources 	20
scalar Network400.node250 	query_homogenity_rate 	33.333333333333
scalar Network400.node250 	qrecord_time 	13110.203107269
scalar Network400.node250 	discovery_resolution_rate 	0
scalar Network400.node80 	rate_of_requesters 	1
scalar Network400.node80 	number_of_resources 	22000
scalar Network400.node80 	time_period 	3
scalar Network400.node80 	number_of_messages 	17
scalar Network400.node80 	discovery_latency 	2226
scalar Network400.node80 	number_of_desired_resources 	20
scalar Network400.node80 	query_homogenity_rate 	33.333333333333
scalar Network400.node80 	qrecord_time 	13164.739225514
scalar Network400.node80 	discovery_resolution_rate 	66.666666666667
scalar Network400.node200 	rate_of_requesters 	1
scalar Network400.node200 	number_of_resources 	22000
scalar Network400.node200 	time_period 	3
scalar Network400.node200 	number_of_messages 	68
scalar Network400.node200 	discovery_latency 	2166
scalar Network400.node200 	number_of_desired_resources 	20
scalar Network400.node200 	query_homogenity_rate 	33.333333333333
scalar Network400.node200 	qrecord_time 	13324.492709768
scalar Network400.node200 	discovery_resolution_rate 	66.666666666667
scalar Network400.node280 	rate_of_requesters 	1
scalar Network400.node280 	number_of_resources 	22000
scalar Network400.node280 	time_period 	2
scalar Network400.node280 	number_of_messages 	36
scalar Network400.node280 	discovery_latency 	2202
scalar Network400.node280 	number_of_desired_resources 	20
scalar Network400.node280 	query_homogenity_rate 	33.333333333333
scalar Network400.node280 	qrecord_time 	13394.368280094
scalar Network400.node280 	discovery_resolution_rate 	66.666666666667
scalar Network400.node70 	rate_of_requesters 	1
scalar Network400.node70 	number_of_resources 	22000
scalar Network400.node70 	time_period 	3
scalar Network400.node70 	number_of_messages 	15
scalar Network400.node70 	discovery_latency 	2508
scalar Network400.node70 	number_of_desired_resources 	20
scalar Network400.node70 	query_homogenity_rate 	33.333333333333
scalar Network400.node70 	qrecord_time 	13911.389639083
scalar Network400.node70 	discovery_resolution_rate 	33.333333333333
scalar Network400.node110 	rate_of_requesters 	1
scalar Network400.node110 	number_of_resources 	22000
scalar Network400.node110 	time_period 	5
scalar Network400.node110 	number_of_messages 	19
scalar Network400.node110 	discovery_latency 	2370
scalar Network400.node110 	number_of_desired_resources 	20
scalar Network400.node110 	query_homogenity_rate 	33.333333333333
scalar Network400.node110 	qrecord_time 	13924.750161626
scalar Network400.node110 	discovery_resolution_rate 	33.333333333333
scalar Network400.node10 	rate_of_requesters 	1
scalar Network400.node10 	number_of_resources 	22000
scalar Network400.node10 	time_period 	3
scalar Network400.node10 	number_of_messages 	42
scalar Network400.node10 	discovery_latency 	2628
scalar Network400.node10 	number_of_desired_resources 	20
scalar Network400.node10 	query_homogenity_rate 	33.333333333333
scalar Network400.node10 	qrecord_time 	14005.76175815
scalar Network400.node10 	discovery_resolution_rate 	33.333333333333
scalar Network400.node210 	rate_of_requesters 	1
scalar Network400.node210 	number_of_resources 	22000
scalar Network400.node210 	time_period 	6
scalar Network400.node210 	number_of_messages 	61
scalar Network400.node210 	discovery_latency 	2094
scalar Network400.node210 	number_of_desired_resources 	20
scalar Network400.node210 	query_homogenity_rate 	33.333333333333
scalar Network400.node210 	qrecord_time 	14066.280482108
scalar Network400.node210 	discovery_resolution_rate 	66.666666666667
scalar Network400.node50 	rate_of_requesters 	1
scalar Network400.node50 	number_of_resources 	22000
scalar Network400.node50 	time_period 	3
scalar Network400.node50 	number_of_messages 	156
scalar Network400.node50 	discovery_latency 	2604
scalar Network400.node50 	number_of_desired_resources 	20
scalar Network400.node50 	query_homogenity_rate 	33.333333333333
scalar Network400.node50 	qrecord_time 	14154.127544952
scalar Network400.node50 	discovery_resolution_rate 	50
scalar Network400.node40 	rate_of_requesters 	1
scalar Network400.node40 	number_of_resources 	22000
scalar Network400.node40 	time_period 	3
scalar Network400.node40 	number_of_messages 	2
scalar Network400.node40 	discovery_latency 	2604
scalar Network400.node40 	number_of_desired_resources 	20
scalar Network400.node40 	query_homogenity_rate 	33.333333333333
scalar Network400.node40 	qrecord_time 	14176.421391537
scalar Network400.node40 	discovery_resolution_rate 	0
scalar Network400.node340 	rate_of_requesters 	1
scalar Network400.node340 	number_of_resources 	22000
scalar Network400.node340 	time_period 	4
scalar Network400.node340 	number_of_messages 	82
scalar Network400.node340 	discovery_latency 	1020
scalar Network400.node340 	number_of_desired_resources 	20
scalar Network400.node340 	query_homogenity_rate 	33.333333333333
scalar Network400.node340 	qrecord_time 	14212.993093559
scalar Network400.node340 	discovery_resolution_rate 	100
scalar Network400.node350 	rate_of_requesters 	1
scalar Network400.node350 	number_of_resources 	22000
scalar Network400.node350 	time_period 	5
scalar Network400.node350 	number_of_messages 	42
scalar Network400.node350 	discovery_latency 	2592
scalar Network400.node350 	number_of_desired_resources 	20
scalar Network400.node350 	query_homogenity_rate 	33.333333333333
scalar Network400.node350 	qrecord_time 	14279.818976182
scalar Network400.node350 	discovery_resolution_rate 	33.333333333333
scalar Network400.node320 	rate_of_requesters 	1
scalar Network400.node320 	number_of_resources 	22000
scalar Network400.node320 	time_period 	4
scalar Network400.node320 	number_of_messages 	22
scalar Network400.node320 	discovery_latency 	2334
scalar Network400.node320 	number_of_desired_resources 	20
scalar Network400.node320 	query_homogenity_rate 	33.333333333333
scalar Network400.node320 	qrecord_time 	14323.391525496
scalar Network400.node320 	discovery_resolution_rate 	33.333333333333
scalar Network400.node110 	rate_of_requesters 	1
scalar Network400.node110 	number_of_resources 	22000
scalar Network400.node110 	time_period 	6
scalar Network400.node110 	number_of_messages 	2
scalar Network400.node110 	discovery_latency 	2604
scalar Network400.node110 	number_of_desired_resources 	20
scalar Network400.node110 	query_homogenity_rate 	33.333333333333
scalar Network400.node110 	qrecord_time 	14324.062301566
scalar Network400.node110 	discovery_resolution_rate 	0
scalar Network400.node120 	rate_of_requesters 	1
scalar Network400.node120 	number_of_resources 	22000
scalar Network400.node120 	time_period 	2
scalar Network400.node120 	number_of_messages 	85
scalar Network400.node120 	discovery_latency 	2334
scalar Network400.node120 	number_of_desired_resources 	20
scalar Network400.node120 	query_homogenity_rate 	33.333333333333
scalar Network400.node120 	qrecord_time 	14403.555818972
scalar Network400.node120 	discovery_resolution_rate 	33.333333333333
scalar Network400.node0 	rate_of_requesters 	1
scalar Network400.node0 	number_of_resources 	22000
scalar Network400.node0 	time_period 	6
scalar Network400.node0 	number_of_messages 	0
scalar Network400.node0 	discovery_latency 	2676
scalar Network400.node0 	number_of_desired_resources 	20
scalar Network400.node0 	query_homogenity_rate 	33.333333333333
scalar Network400.node0 	qrecord_time 	14446.171456681
scalar Network400.node0 	discovery_resolution_rate 	0
scalar Network400.node170 	rate_of_requesters 	1
scalar Network400.node170 	number_of_resources 	22000
scalar Network400.node170 	time_period 	4
scalar Network400.node170 	number_of_messages 	34
scalar Network400.node170 	discovery_latency 	2106
scalar Network400.node170 	number_of_desired_resources 	20
scalar Network400.node170 	query_homogenity_rate 	33.333333333333
scalar Network400.node170 	qrecord_time 	14912.446637896
scalar Network400.node170 	discovery_resolution_rate 	66.666666666667
scalar Network400.node340 	rate_of_requesters 	1
scalar Network400.node340 	number_of_resources 	22000
scalar Network400.node340 	time_period 	3
scalar Network400.node340 	number_of_messages 	26
scalar Network400.node340 	discovery_latency 	2358
scalar Network400.node340 	number_of_desired_resources 	20
scalar Network400.node340 	query_homogenity_rate 	33.333333333333
scalar Network400.node340 	qrecord_time 	15005.097626258
scalar Network400.node340 	discovery_resolution_rate 	66.666666666667
scalar Network400.node150 	rate_of_requesters 	1
scalar Network400.node150 	number_of_resources 	22000
scalar Network400.node150 	time_period 	4
scalar Network400.node150 	number_of_messages 	22
scalar Network400.node150 	discovery_latency 	2358
scalar Network400.node150 	number_of_desired_resources 	20
scalar Network400.node150 	query_homogenity_rate 	33.333333333333
scalar Network400.node150 	qrecord_time 	15016.040907145
scalar Network400.node150 	discovery_resolution_rate 	66.666666666667
scalar Network400.node90 	rate_of_requesters 	1
scalar Network400.node90 	number_of_resources 	22000
scalar Network400.node90 	time_period 	2
scalar Network400.node90 	number_of_messages 	57
scalar Network400.node90 	discovery_latency 	2394
scalar Network400.node90 	number_of_desired_resources 	20
scalar Network400.node90 	query_homogenity_rate 	33.333333333333
scalar Network400.node90 	qrecord_time 	15603.447298933
scalar Network400.node90 	discovery_resolution_rate 	33.333333333333
scalar Network400.node230 	rate_of_requesters 	1
scalar Network400.node230 	number_of_resources 	22000
scalar Network400.node230 	time_period 	4
scalar Network400.node230 	number_of_messages 	2
scalar Network400.node230 	discovery_latency 	2748
scalar Network400.node230 	number_of_desired_resources 	20
scalar Network400.node230 	query_homogenity_rate 	33.333333333333
scalar Network400.node230 	qrecord_time 	15701.319580026
scalar Network400.node230 	discovery_resolution_rate 	0
scalar Network400.node240 	rate_of_requesters 	1
scalar Network400.node240 	number_of_resources 	22000
scalar Network400.node240 	time_period 	3
scalar Network400.node240 	number_of_messages 	114
scalar Network400.node240 	discovery_latency 	2676
scalar Network400.node240 	number_of_desired_resources 	20
scalar Network400.node240 	query_homogenity_rate 	33.333333333333
scalar Network400.node240 	qrecord_time 	16032.782515204
scalar Network400.node240 	discovery_resolution_rate 	16.666666666667
scalar Network400.node160 	rate_of_requesters 	1
scalar Network400.node160 	number_of_resources 	22000
scalar Network400.node160 	time_period 	3
scalar Network400.node160 	number_of_messages 	136
scalar Network400.node160 	discovery_latency 	2796
scalar Network400.node160 	number_of_desired_resources 	20
scalar Network400.node160 	query_homogenity_rate 	33.333333333333
scalar Network400.node160 	qrecord_time 	16150.713880767
scalar Network400.node160 	discovery_resolution_rate 	16.666666666667
scalar Network400.node390 	rate_of_requesters 	1
scalar Network400.node390 	number_of_resources 	22000
scalar Network400.node390 	time_period 	2
scalar Network400.node390 	number_of_messages 	141
scalar Network400.node390 	discovery_latency 	2382
scalar Network400.node390 	number_of_desired_resources 	20
scalar Network400.node390 	query_homogenity_rate 	33.333333333333
scalar Network400.node390 	qrecord_time 	16257.124863024
scalar Network400.node390 	discovery_resolution_rate 	50
scalar Network400.node190 	rate_of_requesters 	1
scalar Network400.node190 	number_of_resources 	22000
scalar Network400.node190 	time_period 	3
scalar Network400.node190 	number_of_messages 	109
scalar Network400.node190 	discovery_latency 	2394
scalar Network400.node190 	number_of_desired_resources 	20
scalar Network400.node190 	query_homogenity_rate 	33.333333333333
scalar Network400.node190 	qrecord_time 	16317.401946386
scalar Network400.node190 	discovery_resolution_rate 	66.666666666667
scalar Network400.node250 	rate_of_requesters 	1
scalar Network400.node250 	number_of_resources 	22000
scalar Network400.node250 	time_period 	4
scalar Network400.node250 	number_of_messages 	18
scalar Network400.node250 	discovery_latency 	2250
scalar Network400.node250 	number_of_desired_resources 	20
scalar Network400.node250 	query_homogenity_rate 	33.333333333333
scalar Network400.node250 	qrecord_time 	16475.050570518
scalar Network400.node250 	discovery_resolution_rate 	66.666666666667
scalar Network400.node80 	rate_of_requesters 	1
scalar Network400.node80 	number_of_resources 	22000
scalar Network400.node80 	time_period 	4
scalar Network400.node80 	number_of_messages 	16
scalar Network400.node80 	discovery_latency 	2700
scalar Network400.node80 	number_of_desired_resources 	20
scalar Network400.node80 	query_homogenity_rate 	33.333333333333
scalar Network400.node80 	qrecord_time 	16486.116115012
scalar Network400.node80 	discovery_resolution_rate 	66.666666666667
scalar Network400.node200 	rate_of_requesters 	1
scalar Network400.node200 	number_of_resources 	22000
scalar Network400.node200 	time_period 	4
scalar Network400.node200 	number_of_messages 	17
scalar Network400.node200 	discovery_latency 	2712
scalar Network400.node200 	number_of_desired_resources 	20
scalar Network400.node200 	query_homogenity_rate 	33.333333333333
scalar Network400.node200 	qrecord_time 	16496.247237183
scalar Network400.node200 	discovery_resolution_rate 	33.333333333333
scalar Network400.node90 	rate_of_requesters 	1
scalar Network400.node90 	number_of_resources 	22000
scalar Network400.node90 	time_period 	3
scalar Network400.node90 	number_of_messages 	26
scalar Network400.node90 	discovery_latency 	2202
scalar Network400.node90 	number_of_desired_resources 	20
scalar Network400.node90 	query_homogenity_rate 	33.333333333333
scalar Network400.node90 	qrecord_time 	16550.942126917
scalar Network400.node90 	discovery_resolution_rate 	66.666666666667
scalar Network400.node50 	rate_of_requesters 	1
scalar Network400.node50 	number_of_resources 	22000
scalar Network400.node50 	time_period 	4
scalar Network400.node50 	number_of_messages 	11
scalar Network400.node50 	discovery_latency 	2250
scalar Network400.node50 	number_of_desired_resources 	20
scalar Network400.node50 	query_homogenity_rate 	33.333333333333
scalar Network400.node50 	qrecord_time 	16745.496082975
scalar Network400.node50 	discovery_resolution_rate 	66.666666666667
scalar Network400.node350 	rate_of_requesters 	1
scalar Network400.node350 	number_of_resources 	22000
scalar Network400.node350 	time_period 	6
scalar Network400.node350 	number_of_messages 	23
scalar Network400.node350 	discovery_latency 	2190
scalar Network400.node350 	number_of_desired_resources 	20
scalar Network400.node350 	query_homogenity_rate 	33.333333333333
scalar Network400.node350 	qrecord_time 	16870.009132356
scalar Network400.node350 	discovery_resolution_rate 	66.666666666667
scalar Network400.node260 	rate_of_requesters 	1
scalar Network400.node260 	number_of_resources 	22000
scalar Network400.node260 	time_period 	3
scalar Network400.node260 	number_of_messages 	48
scalar Network400.node260 	discovery_latency 	2238
scalar Network400.node260 	number_of_desired_resources 	20
scalar Network400.node260 	query_homogenity_rate 	33.333333333333
scalar Network400.node260 	qrecord_time 	16957.409480851
scalar Network400.node260 	discovery_resolution_rate 	66.666666666667
scalar Network400.node350 	rate_of_requesters 	1
scalar Network400.node350 	number_of_resources 	22000
scalar Network400.node350 	time_period 	7
scalar Network400.node350 	number_of_messages 	24
scalar Network400.node350 	discovery_latency 	2298
scalar Network400.node350 	number_of_desired_resources 	20
scalar Network400.node350 	query_homogenity_rate 	33.333333333333
scalar Network400.node350 	qrecord_time 	17161.529400016
scalar Network400.node350 	discovery_resolution_rate 	33.333333333333
scalar Network400.node380 	rate_of_requesters 	1
scalar Network400.node380 	number_of_resources 	22000
scalar Network400.node380 	time_period 	3
scalar Network400.node380 	number_of_messages 	25
scalar Network400.node380 	discovery_latency 	2298
scalar Network400.node380 	number_of_desired_resources 	20
scalar Network400.node380 	query_homogenity_rate 	33.333333333333
scalar Network400.node380 	qrecord_time 	17243.906803523
scalar Network400.node380 	discovery_resolution_rate 	33.333333333333
scalar Network400.node130 	rate_of_requesters 	1
scalar Network400.node130 	number_of_resources 	22000
scalar Network400.node130 	time_period 	3
scalar Network400.node130 	number_of_messages 	10
scalar Network400.node130 	discovery_latency 	2310
scalar Network400.node130 	number_of_desired_resources 	20
scalar Network400.node130 	query_homogenity_rate 	33.333333333333
scalar Network400.node130 	qrecord_time 	17446.698492532
scalar Network400.node130 	discovery_resolution_rate 	33.333333333333
scalar Network400.node190 	rate_of_requesters 	1
scalar Network400.node190 	number_of_resources 	22000
scalar Network400.node190 	time_period 	4
scalar Network400.node190 	number_of_messages 	101
scalar Network400.node190 	discovery_latency 	2430
scalar Network400.node190 	number_of_desired_resources 	20
scalar Network400.node190 	query_homogenity_rate 	33.333333333333
scalar Network400.node190 	qrecord_time 	17805.49820747
scalar Network400.node190 	discovery_resolution_rate 	66.666666666667
scalar Network400.node60 	rate_of_requesters 	1
scalar Network400.node60 	number_of_resources 	22000
scalar Network400.node60 	time_period 	4
scalar Network400.node60 	number_of_messages 	124
scalar Network400.node60 	discovery_latency 	2604
scalar Network400.node60 	number_of_desired_resources 	20
scalar Network400.node60 	query_homogenity_rate 	33.333333333333
scalar Network400.node60 	qrecord_time 	17837.425962822
scalar Network400.node60 	discovery_resolution_rate 	50
scalar Network400.node100 	rate_of_requesters 	1
scalar Network400.node100 	number_of_resources 	22000
scalar Network400.node100 	time_period 	3
scalar Network400.node100 	number_of_messages 	2
scalar Network400.node100 	discovery_latency 	2580
scalar Network400.node100 	number_of_desired_resources 	20
scalar Network400.node100 	query_homogenity_rate 	33.333333333333
scalar Network400.node100 	qrecord_time 	18067.228516252
scalar Network400.node100 	discovery_resolution_rate 	0
scalar Network400.node160 	rate_of_requesters 	1
scalar Network400.node160 	number_of_resources 	22000
scalar Network400.node160 	time_period 	4
scalar Network400.node160 	number_of_messages 	24
scalar Network400.node160 	discovery_latency 	2382
scalar Network400.node160 	number_of_desired_resources 	20
scalar Network400.node160 	query_homogenity_rate 	33.333333333333
scalar Network400.node160 	qrecord_time 	18114.408524353
scalar Network400.node160 	discovery_resolution_rate 	33.333333333333
scalar Network400.node110 	rate_of_requesters 	1
scalar Network400.node110 	number_of_resources 	22000
scalar Network400.node110 	time_period 	7
scalar Network400.node110 	number_of_messages 	158
scalar Network400.node110 	discovery_latency 	2604
scalar Network400.node110 	number_of_desired_resources 	20
scalar Network400.node110 	query_homogenity_rate 	33.333333333333
scalar Network400.node110 	qrecord_time 	18126.926796087
scalar Network400.node110 	discovery_resolution_rate 	83.333333333333
scalar Network400.node20 	rate_of_requesters 	1
scalar Network400.node20 	number_of_resources 	22000
scalar Network400.node20 	time_period 	5
scalar Network400.node20 	number_of_messages 	36
scalar Network400.node20 	discovery_latency 	2214
scalar Network400.node20 	number_of_desired_resources 	20
scalar Network400.node20 	query_homogenity_rate 	33.333333333333
scalar Network400.node20 	qrecord_time 	18405.166660987
scalar Network400.node20 	discovery_resolution_rate 	66.666666666667
scalar Network400.node390 	rate_of_requesters 	1
scalar Network400.node390 	number_of_resources 	22000
scalar Network400.node390 	time_period 	4
scalar Network400.node390 	number_of_messages 	23
scalar Network400.node390 	discovery_latency 	132
scalar Network400.node390 	number_of_desired_resources 	20
scalar Network400.node390 	query_homogenity_rate 	33.333333333333
scalar Network400.node390 	qrecord_time 	18559.287187831
scalar Network400.node390 	discovery_resolution_rate 	100
scalar Network400.node300 	rate_of_requesters 	1
scalar Network400.node300 	number_of_resources 	22000
scalar Network400.node300 	time_period 	5
scalar Network400.node300 	number_of_messages 	35
scalar Network400.node300 	discovery_latency 	294
scalar Network400.node300 	number_of_desired_resources 	20
scalar Network400.node300 	query_homogenity_rate 	33.333333333333
scalar Network400.node300 	qrecord_time 	18634.933770169
scalar Network400.node300 	discovery_resolution_rate 	100
scalar Network400.node230 	rate_of_requesters 	1
scalar Network400.node230 	number_of_resources 	22000
scalar Network400.node230 	time_period 	5
scalar Network400.node230 	number_of_messages 	24
scalar Network400.node230 	discovery_latency 	2346
scalar Network400.node230 	number_of_desired_resources 	20
scalar Network400.node230 	query_homogenity_rate 	33.333333333333
scalar Network400.node230 	qrecord_time 	18737.158467313
scalar Network400.node230 	discovery_resolution_rate 	66.666666666667
scalar Network400.node230 	rate_of_requesters 	1
scalar Network400.node230 	number_of_resources 	22000
scalar Network400.node230 	time_period 	8
scalar Network400.node230 	number_of_messages 	28
scalar Network400.node230 	discovery_latency 	162
scalar Network400.node230 	number_of_desired_resources 	20
scalar Network400.node230 	query_homogenity_rate 	33.333333333333
scalar Network400.node230 	qrecord_time 	18781.389469704
scalar Network400.node230 	discovery_resolution_rate 	100
scalar Network400.node390 	rate_of_requesters 	1
scalar Network400.node390 	number_of_resources 	22000
scalar Network400.node390 	time_period 	3
scalar Network400.node390 	number_of_messages 	10
scalar Network400.node390 	discovery_latency 	2430
scalar Network400.node390 	number_of_desired_resources 	20
scalar Network400.node390 	query_homogenity_rate 	33.333333333333
scalar Network400.node390 	qrecord_time 	18841.563058642
scalar Network400.node390 	discovery_resolution_rate 	33.333333333333
scalar Network400.node220 	rate_of_requesters 	1
scalar Network400.node220 	number_of_resources 	22000
scalar Network400.node220 	time_period 	3
scalar Network400.node220 	number_of_messages 	60
scalar Network400.node220 	discovery_latency 	2166
scalar Network400.node220 	number_of_desired_resources 	20
scalar Network400.node220 	query_homogenity_rate 	33.333333333333
scalar Network400.node220 	qrecord_time 	19011.212406316
scalar Network400.node220 	discovery_resolution_rate 	66.666666666667
scalar Network400.node130 	rate_of_requesters 	1
scalar Network400.node130 	number_of_resources 	22000
scalar Network400.node130 	time_period 	4
scalar Network400.node130 	number_of_messages 	27
scalar Network400.node130 	discovery_latency 	2514
scalar Network400.node130 	number_of_desired_resources 	20
scalar Network400.node130 	query_homogenity_rate 	33.333333333333
scalar Network400.node130 	qrecord_time 	19041.434350007
scalar Network400.node130 	discovery_resolution_rate 	66.666666666667
scalar Network400.node230 	rate_of_requesters 	1
scalar Network400.node230 	number_of_resources 	22000
scalar Network400.node230 	time_period 	6
scalar Network400.node230 	number_of_messages 	24
scalar Network400.node230 	discovery_latency 	2442
scalar Network400.node230 	number_of_desired_resources 	20
scalar Network400.node230 	query_homogenity_rate 	33.333333333333
scalar Network400.node230 	qrecord_time 	19057.464062238
scalar Network400.node230 	discovery_resolution_rate 	66.666666666667
scalar Network400.node240 	rate_of_requesters 	1
scalar Network400.node240 	number_of_resources 	22000
scalar Network400.node240 	time_period 	4
scalar Network400.node240 	number_of_messages 	17
scalar Network400.node240 	discovery_latency 	2628
scalar Network400.node240 	number_of_desired_resources 	20
scalar Network400.node240 	query_homogenity_rate 	33.333333333333
scalar Network400.node240 	qrecord_time 	19123.129854805
scalar Network400.node240 	discovery_resolution_rate 	33.333333333333
scalar Network400.node300 	rate_of_requesters 	1
scalar Network400.node300 	number_of_resources 	22000
scalar Network400.node300 	time_period 	3
scalar Network400.node300 	number_of_messages 	12
scalar Network400.node300 	discovery_latency 	2382
scalar Network400.node300 	number_of_desired_resources 	20
scalar Network400.node300 	query_homogenity_rate 	33.333333333333
scalar Network400.node300 	qrecord_time 	19260.165933252
scalar Network400.node300 	discovery_resolution_rate 	33.333333333333
scalar Network400.node30 	rate_of_requesters 	1
scalar Network400.node30 	number_of_resources 	22000
scalar Network400.node30 	time_period 	2
scalar Network400.node30 	number_of_messages 	114
scalar Network400.node30 	discovery_latency 	2568
scalar Network400.node30 	number_of_desired_resources 	20
scalar Network400.node30 	query_homogenity_rate 	33.333333333333
scalar Network400.node30 	qrecord_time 	19499.993775252
scalar Network400.node30 	discovery_resolution_rate 	16.666666666667
scalar Network400.node280 	rate_of_requesters 	1
scalar Network400.node280 	number_of_resources 	22000
scalar Network400.node280 	time_period 	3
scalar Network400.node280 	number_of_messages 	112
scalar Network400.node280 	discovery_latency 	2748
scalar Network400.node280 	number_of_desired_resources 	20
scalar Network400.node280 	query_homogenity_rate 	33.333333333333
scalar Network400.node280 	qrecord_time 	19532.582720101
scalar Network400.node280 	discovery_resolution_rate 	16.666666666667
scalar Network400.node70 	rate_of_requesters 	1
scalar Network400.node70 	number_of_resources 	22000
scalar Network400.node70 	time_period 	4
scalar Network400.node70 	number_of_messages 	2
scalar Network400.node70 	discovery_latency 	2628
scalar Network400.node70 	number_of_desired_resources 	20
scalar Network400.node70 	query_homogenity_rate 	33.333333333333
scalar Network400.node70 	qrecord_time 	19640.319939187
scalar Network400.node70 	discovery_resolution_rate 	0
scalar Network400.node310 	rate_of_requesters 	1
scalar Network400.node310 	number_of_resources 	22000
scalar Network400.node310 	time_period 	5
scalar Network400.node310 	number_of_messages 	15
scalar Network400.node310 	discovery_latency 	2652
scalar Network400.node310 	number_of_desired_resources 	20
scalar Network400.node310 	query_homogenity_rate 	33.333333333333
scalar Network400.node310 	qrecord_time 	19772.489113928
scalar Network400.node310 	discovery_resolution_rate 	33.333333333333
scalar Network400.node50 	rate_of_requesters 	1
scalar Network400.node50 	number_of_resources 	22000
scalar Network400.node50 	time_period 	5
scalar Network400.node50 	number_of_messages 	4
scalar Network400.node50 	discovery_latency 	2586
scalar Network400.node50 	number_of_desired_resources 	20
scalar Network400.node50 	query_homogenity_rate 	33.333333333333
scalar Network400.node50 	qrecord_time 	19774.965093561
scalar Network400.node50 	discovery_resolution_rate 	33.333333333333
scalar Network400.node70 	rate_of_requesters 	1
scalar Network400.node70 	number_of_resources 	22000
scalar Network400.node70 	time_period 	5
scalar Network400.node70 	number_of_messages 	58
scalar Network400.node70 	discovery_latency 	2154
scalar Network400.node70 	number_of_desired_resources 	20
scalar Network400.node70 	query_homogenity_rate 	33.333333333333
scalar Network400.node70 	qrecord_time 	19781.446514538
scalar Network400.node70 	discovery_resolution_rate 	66.666666666667
scalar Network400.node250 	rate_of_requesters 	1
scalar Network400.node250 	number_of_resources 	22000
scalar Network400.node250 	time_period 	5
scalar Network400.node250 	number_of_messages 	77
scalar Network400.node250 	discovery_latency 	2652
scalar Network400.node250 	number_of_desired_resources 	20
scalar Network400.node250 	query_homogenity_rate 	33.333333333333
scalar Network400.node250 	qrecord_time 	19843.234491706
scalar Network400.node250 	discovery_resolution_rate 	33.333333333333
scalar Network400.node0 	rate_of_requesters 	1
scalar Network400.node0 	number_of_resources 	22000
scalar Network400.node0 	time_period 	7
scalar Network400.node0 	number_of_messages 	0
scalar Network400.node0 	discovery_latency 	2640
scalar Network400.node0 	number_of_desired_resources 	20
scalar Network400.node0 	query_homogenity_rate 	33.333333333333
scalar Network400.node0 	qrecord_time 	19939.790197056
scalar Network400.node0 	discovery_resolution_rate 	0
scalar Network400.node250 	rate_of_requesters 	1
scalar Network400.node250 	number_of_resources 	22000
scalar Network400.node250 	time_period 	6
scalar Network400.node250 	number_of_messages 	48
scalar Network400.node250 	discovery_latency 	2652
scalar Network400.node250 	number_of_desired_resources 	20
scalar Network400.node250 	query_homogenity_rate 	33.333333333333
scalar Network400.node250 	qrecord_time 	19975.677562844
scalar Network400.node250 	discovery_resolution_rate 	33.333333333333
scalar Network400.node20 	rate_of_requesters 	1
scalar Network400.node20 	number_of_resources 	22000
scalar Network400.node20 	time_period 	6
scalar Network400.node20 	number_of_messages 	2
scalar Network400.node20 	discovery_latency 	2664
scalar Network400.node20 	number_of_desired_resources 	20
scalar Network400.node20 	query_homogenity_rate 	33.333333333333
scalar Network400.node20 	qrecord_time 	20043.559451528
scalar Network400.node20 	discovery_resolution_rate 	0
scalar Network400.node300 	rate_of_requesters 	1
scalar Network400.node300 	number_of_resources 	22000
scalar Network400.node300 	time_period 	4
scalar Network400.node300 	number_of_messages 	2
scalar Network400.node300 	discovery_latency 	2604
scalar Network400.node300 	number_of_desired_resources 	20
scalar Network400.node300 	query_homogenity_rate 	33.333333333333
scalar Network400.node300 	qrecord_time 	20063.142604369
scalar Network400.node300 	discovery_resolution_rate 	0
scalar Network400.node50 	rate_of_requesters 	1
scalar Network400.node50 	number_of_resources 	22000
scalar Network400.node50 	time_period 	6
scalar Network400.node50 	number_of_messages 	45
scalar Network400.node50 	discovery_latency 	2430
scalar Network400.node50 	number_of_desired_resources 	20
scalar Network400.node50 	query_homogenity_rate 	33.333333333333
scalar Network400.node50 	qrecord_time 	20092.934225425
scalar Network400.node50 	discovery_resolution_rate 	33.333333333333
scalar Network400.node240 	rate_of_requesters 	1
scalar Network400.node240 	number_of_resources 	22000
scalar Network400.node240 	time_period 	5
scalar Network400.node240 	number_of_messages 	2
scalar Network400.node240 	discovery_latency 	2628
scalar Network400.node240 	number_of_desired_resources 	20
scalar Network400.node240 	query_homogenity_rate 	33.333333333333
scalar Network400.node240 	qrecord_time 	20103.837150874
scalar Network400.node240 	discovery_resolution_rate 	0
scalar Network400.node60 	rate_of_requesters 	1
scalar Network400.node60 	number_of_resources 	22000
scalar Network400.node60 	time_period 	5
scalar Network400.node60 	number_of_messages 	36
scalar Network400.node60 	discovery_latency 	2190
scalar Network400.node60 	number_of_desired_resources 	20
scalar Network400.node60 	query_homogenity_rate 	33.333333333333
scalar Network400.node60 	qrecord_time 	20158.897220447
scalar Network400.node60 	discovery_resolution_rate 	66.666666666667
scalar Network400.node250 	rate_of_requesters 	1
scalar Network400.node250 	number_of_resources 	22000
scalar Network400.node250 	time_period 	7
scalar Network400.node250 	number_of_messages 	143
scalar Network400.node250 	discovery_latency 	2442
scalar Network400.node250 	number_of_desired_resources 	20
scalar Network400.node250 	query_homogenity_rate 	33.333333333333
scalar Network400.node250 	qrecord_time 	20239.786986058
scalar Network400.node250 	discovery_resolution_rate 	50
scalar Network400.node230 	rate_of_requesters 	1
scalar Network400.node230 	number_of_resources 	22000
scalar Network400.node230 	time_period 	7
scalar Network400.node230 	number_of_messages 	2
scalar Network400.node230 	discovery_latency 	2664
scalar Network400.node230 	number_of_desired_resources 	20
scalar Network400.node230 	query_homogenity_rate 	33.333333333333
scalar Network400.node230 	qrecord_time 	20448.247296846
scalar Network400.node230 	discovery_resolution_rate 	0
scalar Network400.node130 	rate_of_requesters 	1
scalar Network400.node130 	number_of_resources 	22000
scalar Network400.node130 	time_period 	5
scalar Network400.node130 	number_of_messages 	23
scalar Network400.node130 	discovery_latency 	2226
scalar Network400.node130 	number_of_desired_resources 	20
scalar Network400.node130 	query_homogenity_rate 	33.333333333333
scalar Network400.node130 	qrecord_time 	21067.825178081
scalar Network400.node130 	discovery_resolution_rate 	66.666666666667
scalar Network400.node310 	rate_of_requesters 	1
scalar Network400.node310 	number_of_resources 	22000
scalar Network400.node310 	time_period 	6
scalar Network400.node310 	number_of_messages 	13
scalar Network400.node310 	discovery_latency 	2382
scalar Network400.node310 	number_of_desired_resources 	20
scalar Network400.node310 	query_homogenity_rate 	33.333333333333
scalar Network400.node310 	qrecord_time 	21246.186174903
scalar Network400.node310 	discovery_resolution_rate 	33.333333333333
scalar Network400.node160 	rate_of_requesters 	1
scalar Network400.node160 	number_of_resources 	22000
scalar Network400.node160 	time_period 	5
scalar Network400.node160 	number_of_messages 	15
scalar Network400.node160 	discovery_latency 	2298
scalar Network400.node160 	number_of_desired_resources 	20
scalar Network400.node160 	query_homogenity_rate 	33.333333333333
scalar Network400.node160 	qrecord_time 	21274.39543129
scalar Network400.node160 	discovery_resolution_rate 	33.333333333333
scalar Network400.node230 	rate_of_requesters 	1
scalar Network400.node230 	number_of_resources 	22000
[...]
scalar Network400.node260 	rate_of_requesters 	1
scalar Network400.node260 	number_of_resources 	22000
scalar Network400.node260 	time_period 	10
scalar Network400.node260 	number_of_messages 	18
scalar Network400.node260 	discovery_latency 	2190
scalar Network400.node260 	number_of_desired_resources 	20
scalar Network400.node260 	query_homogenity_rate 	33.333333333333
scalar Network400.node260 	qrecord_time 	43478.241529323
scalar Network400.node260 	discovery_resolution_rate 	66.666666666667
scalar Network400.node380 	rate_of_requesters 	1
scalar Network400.node380 	number_of_resources 	22000
scalar Network400.node380 	time_period 	7
scalar Network400.node380 	number_of_messages 	123
scalar Network400.node380 	discovery_latency 	2358
scalar Network400.node380 	number_of_desired_resources 	20
scalar Network400.node380 	query_homogenity_rate 	33.333333333333
scalar Network400.node380 	qrecord_time 	43693.86346093
scalar Network400.node380 	discovery_resolution_rate 	50
scalar Network400.node320 	rate_of_requesters 	1
scalar Network400.node320 	number_of_resources 	22000
scalar Network400.node320 	time_period 	8
scalar Network400.node320 	number_of_messages 	37
scalar Network400.node320 	discovery_latency 	300
scalar Network400.node320 	number_of_desired_resources 	20
scalar Network400.node320 	query_homogenity_rate 	33.333333333333
scalar Network400.node320 	qrecord_time 	43707.346305945
scalar Network400.node320 	discovery_resolution_rate 	100
scalar Network400.node220 	rate_of_requesters 	1
scalar Network400.node220 	number_of_resources 	22000
scalar Network400.node220 	time_period 	10
scalar Network400.node220 	number_of_messages 	46
scalar Network400.node220 	discovery_latency 	2142
scalar Network400.node220 	number_of_desired_resources 	20
scalar Network400.node220 	query_homogenity_rate 	33.333333333333
scalar Network400.node220 	qrecord_time 	43892.169838834
scalar Network400.node220 	discovery_resolution_rate 	66.666666666667
scalar Network400.node190 	rate_of_requesters 	1
scalar Network400.node190 	number_of_resources 	22000
scalar Network400.node190 	time_period 	9
scalar Network400.node190 	number_of_messages 	122
scalar Network400.node190 	discovery_latency 	2394
scalar Network400.node190 	number_of_desired_resources 	20
scalar Network400.node190 	query_homogenity_rate 	33.333333333333
scalar Network400.node190 	qrecord_time 	44194.840747518
scalar Network400.node190 	discovery_resolution_rate 	50
scalar Network400.node190 	rate_of_requesters 	1
scalar Network400.node190 	number_of_resources 	22000
scalar Network400.node190 	time_period 	10
scalar Network400.node190 	number_of_messages 	18
scalar Network400.node190 	discovery_latency 	2394
scalar Network400.node190 	number_of_desired_resources 	20
scalar Network400.node190 	query_homogenity_rate 	33.333333333333
scalar Network400.node190 	qrecord_time 	44213.476383507
scalar Network400.node190 	discovery_resolution_rate 	33.333333333333
scalar Network400.node180 	rate_of_requesters 	1
scalar Network400.node180 	number_of_resources 	22000
scalar Network400.node180 	time_period 	10
scalar Network400.node180 	number_of_messages 	32
scalar Network400.node180 	discovery_latency 	252
scalar Network400.node180 	number_of_desired_resources 	20
scalar Network400.node180 	query_homogenity_rate 	33.333333333333
scalar Network400.node180 	qrecord_time 	44283.766815677
scalar Network400.node180 	discovery_resolution_rate 	100
scalar Network400.node320 	rate_of_requesters 	1
scalar Network400.node320 	number_of_resources 	22000
scalar Network400.node320 	time_period 	9
scalar Network400.node320 	number_of_messages 	36
scalar Network400.node320 	discovery_latency 	264
scalar Network400.node320 	number_of_desired_resources 	20
scalar Network400.node320 	query_homogenity_rate 	33.333333333333
scalar Network400.node320 	qrecord_time 	44375.415641076
scalar Network400.node320 	discovery_resolution_rate 	100
scalar Network400.node300 	rate_of_requesters 	1
scalar Network400.node300 	number_of_resources 	22000
scalar Network400.node300 	time_period 	8
scalar Network400.node300 	number_of_messages 	23
scalar Network400.node300 	discovery_latency 	2094
scalar Network400.node300 	number_of_desired_resources 	20
scalar Network400.node300 	query_homogenity_rate 	33.333333333333
scalar Network400.node300 	qrecord_time 	44457.425219137
scalar Network400.node300 	discovery_resolution_rate 	66.666666666667
scalar Network400.node330 	rate_of_requesters 	1
scalar Network400.node330 	number_of_resources 	22000
scalar Network400.node330 	time_period 	8
scalar Network400.node330 	number_of_messages 	58
scalar Network400.node330 	discovery_latency 	480
scalar Network400.node330 	number_of_desired_resources 	20
scalar Network400.node330 	query_homogenity_rate 	33.333333333333
scalar Network400.node330 	qrecord_time 	44849.236190683
scalar Network400.node330 	discovery_resolution_rate 	100
scalar Network400.node30 	rate_of_requesters 	1
scalar Network400.node30 	number_of_resources 	22000
scalar Network400.node30 	time_period 	7
scalar Network400.node30 	number_of_messages 	36
scalar Network400.node30 	discovery_latency 	210
scalar Network400.node30 	number_of_desired_resources 	20
scalar Network400.node30 	query_homogenity_rate 	33.333333333333
scalar Network400.node30 	qrecord_time 	45723.603244492
scalar Network400.node30 	discovery_resolution_rate 	100
scalar Network400.node40 	rate_of_requesters 	1
scalar Network400.node40 	number_of_resources 	22000
scalar Network400.node40 	time_period 	9
scalar Network400.node40 	number_of_messages 	29
scalar Network400.node40 	discovery_latency 	150
scalar Network400.node40 	number_of_desired_resources 	20
scalar Network400.node40 	query_homogenity_rate 	33.333333333333
scalar Network400.node40 	qrecord_time 	46346.825681681
scalar Network400.node40 	discovery_resolution_rate 	100
scalar Network400.node370 	rate_of_requesters 	1
scalar Network400.node370 	number_of_resources 	22000
scalar Network400.node370 	time_period 	7
scalar Network400.node370 	number_of_messages 	21
scalar Network400.node370 	discovery_latency 	126
scalar Network400.node370 	number_of_desired_resources 	20
scalar Network400.node370 	query_homogenity_rate 	33.333333333333
scalar Network400.node370 	qrecord_time 	46545.075489558
scalar Network400.node370 	discovery_resolution_rate 	100
scalar Network400.node330 	rate_of_requesters 	1
scalar Network400.node330 	number_of_resources 	22000
scalar Network400.node330 	time_period 	9
scalar Network400.node330 	number_of_messages 	138
scalar Network400.node330 	discovery_latency 	2130
scalar Network400.node330 	number_of_desired_resources 	20
scalar Network400.node330 	query_homogenity_rate 	33.333333333333
scalar Network400.node330 	qrecord_time 	46624.487045887
scalar Network400.node330 	discovery_resolution_rate 	83.333333333333
scalar Network400.node120 	rate_of_requesters 	1
scalar Network400.node120 	number_of_resources 	22000
scalar Network400.node120 	time_period 	7
scalar Network400.node120 	number_of_messages 	107
scalar Network400.node120 	discovery_latency 	1536
scalar Network400.node120 	number_of_desired_resources 	20
scalar Network400.node120 	query_homogenity_rate 	33.333333333333
scalar Network400.node120 	qrecord_time 	46644.153736058
scalar Network400.node120 	discovery_resolution_rate 	100
scalar Network400.node340 	rate_of_requesters 	1
scalar Network400.node340 	number_of_resources 	22000
scalar Network400.node340 	time_period 	8
scalar Network400.node340 	number_of_messages 	24
scalar Network400.node340 	discovery_latency 	233.99999999999
scalar Network400.node340 	number_of_desired_resources 	20
scalar Network400.node340 	query_homogenity_rate 	33.333333333333
scalar Network400.node340 	qrecord_time 	47066.318337845
scalar Network400.node340 	discovery_resolution_rate 	100
scalar Network400.node320 	rate_of_requesters 	1
scalar Network400.node320 	number_of_resources 	22000
scalar Network400.node320 	time_period 	10
scalar Network400.node320 	number_of_messages 	32
scalar Network400.node320 	discovery_latency 	306
scalar Network400.node320 	number_of_desired_resources 	20
scalar Network400.node320 	query_homogenity_rate 	33.333333333333
scalar Network400.node320 	qrecord_time 	47305.704118546
scalar Network400.node320 	discovery_resolution_rate 	100
scalar Network400.node330 	rate_of_requesters 	1
scalar Network400.node330 	number_of_resources 	22000
scalar Network400.node330 	time_period 	10
scalar Network400.node330 	number_of_messages 	29
scalar Network400.node330 	discovery_latency 	318
scalar Network400.node330 	number_of_desired_resources 	20
scalar Network400.node330 	query_homogenity_rate 	33.333333333333
scalar Network400.node330 	qrecord_time 	47579.347331911
scalar Network400.node330 	discovery_resolution_rate 	100
scalar Network400.node160 	rate_of_requesters 	1
scalar Network400.node160 	number_of_resources 	22000
scalar Network400.node160 	time_period 	9
scalar Network400.node160 	number_of_messages 	83
scalar Network400.node160 	discovery_latency 	1266
scalar Network400.node160 	number_of_desired_resources 	20
scalar Network400.node160 	query_homogenity_rate 	33.333333333333
scalar Network400.node160 	qrecord_time 	48563.371662714
scalar Network400.node160 	discovery_resolution_rate 	100
scalar Network400.node120 	rate_of_requesters 	1
scalar Network400.node120 	number_of_resources 	22000
scalar Network400.node120 	time_period 	8
scalar Network400.node120 	number_of_messages 	21
scalar Network400.node120 	discovery_latency 	168
scalar Network400.node120 	number_of_desired_resources 	20
scalar Network400.node120 	query_homogenity_rate 	33.333333333333
scalar Network400.node120 	qrecord_time 	49467.375758931
scalar Network400.node120 	discovery_resolution_rate 	100
scalar Network400.node370 	rate_of_requesters 	1
scalar Network400.node370 	number_of_resources 	22000
scalar Network400.node370 	time_period 	8
scalar Network400.node370 	number_of_messages 	20
scalar Network400.node370 	discovery_latency 	126
scalar Network400.node370 	number_of_desired_resources 	20
scalar Network400.node370 	query_homogenity_rate 	33.333333333333
scalar Network400.node370 	qrecord_time 	49513.226241517
scalar Network400.node370 	discovery_resolution_rate 	100
scalar Network400.node140 	rate_of_requesters 	1
scalar Network400.node140 	number_of_resources 	22000
scalar Network400.node140 	time_period 	10
scalar Network400.node140 	number_of_messages 	28
scalar Network400.node140 	discovery_latency 	312
scalar Network400.node140 	number_of_desired_resources 	20
scalar Network400.node140 	query_homogenity_rate 	33.333333333333
scalar Network400.node140 	qrecord_time 	49918.185408951
scalar Network400.node140 	discovery_resolution_rate 	100
scalar Network400.node360 	rate_of_requesters 	1
scalar Network400.node360 	number_of_resources 	22000
scalar Network400.node360 	time_period 	10
scalar Network400.node360 	number_of_messages 	31
scalar Network400.node360 	discovery_latency 	2106
scalar Network400.node360 	number_of_desired_resources 	20
scalar Network400.node360 	query_homogenity_rate 	33.333333333333
scalar Network400.node360 	qrecord_time 	50127.929923481
scalar Network400.node360 	discovery_resolution_rate 	66.666666666667
scalar Network400.node40 	rate_of_requesters 	1
scalar Network400.node40 	number_of_resources 	22000
scalar Network400.node40 	time_period 	10
scalar Network400.node40 	number_of_messages 	26
scalar Network400.node40 	discovery_latency 	126
scalar Network400.node40 	number_of_desired_resources 	20
scalar Network400.node40 	query_homogenity_rate 	33.333333333333
scalar Network400.node40 	qrecord_time 	50760.630515541
scalar Network400.node40 	discovery_resolution_rate 	100
scalar Network400.node160 	rate_of_requesters 	1
scalar Network400.node160 	number_of_resources 	22000
scalar Network400.node160 	time_period 	10
scalar Network400.node160 	number_of_messages 	29
scalar Network400.node160 	discovery_latency 	240
scalar Network400.node160 	number_of_desired_resources 	20
scalar Network400.node160 	query_homogenity_rate 	33.333333333333
scalar Network400.node160 	qrecord_time 	50852.734703113
scalar Network400.node160 	discovery_resolution_rate 	100
scalar Network400.node340 	rate_of_requesters 	1
scalar Network400.node340 	number_of_resources 	22000
scalar Network400.node340 	time_period 	9
scalar Network400.node340 	number_of_messages 	18
scalar Network400.node340 	discovery_latency 	132
scalar Network400.node340 	number_of_desired_resources 	20
scalar Network400.node340 	query_homogenity_rate 	33.333333333333
scalar Network400.node340 	qrecord_time 	51931.732135481
scalar Network400.node340 	discovery_resolution_rate 	100
scalar Network400.node30 	rate_of_requesters 	1
scalar Network400.node30 	number_of_resources 	22000
scalar Network400.node30 	time_period 	8
scalar Network400.node30 	number_of_messages 	27
scalar Network400.node30 	discovery_latency 	174
scalar Network400.node30 	number_of_desired_resources 	20
scalar Network400.node30 	query_homogenity_rate 	33.333333333333
scalar Network400.node30 	qrecord_time 	52425.845970618
scalar Network400.node30 	discovery_resolution_rate 	100
scalar Network400.node130 	rate_of_requesters 	1
scalar Network400.node130 	number_of_resources 	22000
scalar Network400.node130 	time_period 	9
scalar Network400.node130 	number_of_messages 	24
scalar Network400.node130 	discovery_latency 	132
scalar Network400.node130 	number_of_desired_resources 	20
scalar Network400.node130 	query_homogenity_rate 	33.333333333333
scalar Network400.node130 	qrecord_time 	52716.942066592
scalar Network400.node130 	discovery_resolution_rate 	100
scalar Network400.node130 	rate_of_requesters 	1
scalar Network400.node130 	number_of_resources 	22000
scalar Network400.node130 	time_period 	10
scalar Network400.node130 	number_of_messages 	26
scalar Network400.node130 	discovery_latency 	156
scalar Network400.node130 	number_of_desired_resources 	20
scalar Network400.node130 	query_homogenity_rate 	33.333333333333
scalar Network400.node130 	qrecord_time 	52825.348609035
scalar Network400.node130 	discovery_resolution_rate 	100
scalar Network400.node340 	rate_of_requesters 	1
scalar Network400.node340 	number_of_resources 	22000
scalar Network400.node340 	time_period 	10
scalar Network400.node340 	number_of_messages 	20
scalar Network400.node340 	discovery_latency 	132
scalar Network400.node340 	number_of_desired_resources 	20
scalar Network400.node340 	query_homogenity_rate 	33.333333333333
scalar Network400.node340 	qrecord_time 	52947.580563566
scalar Network400.node340 	discovery_resolution_rate 	100
scalar Network400.node30 	rate_of_requesters 	1
scalar Network400.node30 	number_of_resources 	22000
scalar Network400.node30 	time_period 	9
scalar Network400.node30 	number_of_messages 	24
scalar Network400.node30 	discovery_latency 	150
scalar Network400.node30 	number_of_desired_resources 	20
scalar Network400.node30 	query_homogenity_rate 	33.333333333333
scalar Network400.node30 	qrecord_time 	54939.478527426
scalar Network400.node30 	discovery_resolution_rate 	100
scalar Network400.node120 	rate_of_requesters 	1
scalar Network400.node120 	number_of_resources 	22000
scalar Network400.node120 	time_period 	9
scalar Network400.node120 	number_of_messages 	22
scalar Network400.node120 	discovery_latency 	168
scalar Network400.node120 	number_of_desired_resources 	20
scalar Network400.node120 	query_homogenity_rate 	33.333333333333
scalar Network400.node120 	qrecord_time 	55490.874952003
scalar Network400.node120 	discovery_resolution_rate 	100
scalar Network400.node120 	rate_of_requesters 	1
scalar Network400.node120 	number_of_resources 	22000
scalar Network400.node120 	time_period 	10
scalar Network400.node120 	number_of_messages 	21
scalar Network400.node120 	discovery_latency 	168
scalar Network400.node120 	number_of_desired_resources 	20
scalar Network400.node120 	query_homogenity_rate 	33.333333333333
scalar Network400.node120 	qrecord_time 	56015.929584347
scalar Network400.node120 	discovery_resolution_rate 	100
scalar Network400.node300 	rate_of_requesters 	1
scalar Network400.node300 	number_of_resources 	22000
scalar Network400.node300 	time_period 	9
scalar Network400.node300 	number_of_messages 	22
scalar Network400.node300 	discovery_latency 	150
scalar Network400.node300 	number_of_desired_resources 	20
scalar Network400.node300 	query_homogenity_rate 	33.333333333333
scalar Network400.node300 	qrecord_time 	56859.277128552
scalar Network400.node300 	discovery_resolution_rate 	100
scalar Network400.node300 	rate_of_requesters 	1
scalar Network400.node300 	number_of_resources 	22000
scalar Network400.node300 	time_period 	10
scalar Network400.node300 	number_of_messages 	30
scalar Network400.node300 	discovery_latency 	276
scalar Network400.node300 	number_of_desired_resources 	20
scalar Network400.node300 	query_homogenity_rate 	33.333333333333
scalar Network400.node300 	qrecord_time 	57274.167349968
scalar Network400.node300 	discovery_resolution_rate 	100
scalar Network400.node380 	rate_of_requesters 	1
scalar Network400.node380 	number_of_resources 	22000
scalar Network400.node380 	time_period 	8
scalar Network400.node380 	number_of_messages 	26
scalar Network400.node380 	discovery_latency 	132.00000000001
scalar Network400.node380 	number_of_desired_resources 	20
scalar Network400.node380 	query_homogenity_rate 	33.333333333333
scalar Network400.node380 	qrecord_time 	58108.086803207
scalar Network400.node380 	discovery_resolution_rate 	100
scalar Network400.node30 	rate_of_requesters 	1
scalar Network400.node30 	number_of_resources 	22000
scalar Network400.node30 	time_period 	10
scalar Network400.node30 	number_of_messages 	25
scalar Network400.node30 	discovery_latency 	162.00000000001
scalar Network400.node30 	number_of_desired_resources 	20
scalar Network400.node30 	query_homogenity_rate 	33.333333333333
scalar Network400.node30 	qrecord_time 	59655.596039278
scalar Network400.node30 	discovery_resolution_rate 	100
scalar Network400.node380 	rate_of_requesters 	1
scalar Network400.node380 	number_of_resources 	22000
scalar Network400.node380 	time_period 	9
scalar Network400.node380 	number_of_messages 	26
scalar Network400.node380 	discovery_latency 	132
scalar Network400.node380 	number_of_desired_resources 	20
scalar Network400.node380 	query_homogenity_rate 	33.333333333333
scalar Network400.node380 	qrecord_time 	60260.792531063
scalar Network400.node380 	discovery_resolution_rate 	100
scalar Network400.node380 	rate_of_requesters 	1
scalar Network400.node380 	number_of_resources 	22000
scalar Network400.node380 	time_period 	10
scalar Network400.node380 	number_of_messages 	26
scalar Network400.node380 	discovery_latency 	132
scalar Network400.node380 	number_of_desired_resources 	20
scalar Network400.node380 	query_homogenity_rate 	33.333333333333
scalar Network400.node380 	qrecord_time 	62612.873278435
scalar Network400.node380 	discovery_resolution_rate 	100
scalar Network400.node370 	rate_of_requesters 	1
scalar Network400.node370 	number_of_resources 	22000
scalar Network400.node370 	time_period 	9
scalar Network400.node370 	number_of_messages 	20
scalar Network400.node370 	discovery_latency 	126
scalar Network400.node370 	number_of_desired_resources 	20
scalar Network400.node370 	query_homogenity_rate 	33.333333333333
scalar Network400.node370 	qrecord_time 	63906.727476392
scalar Network400.node370 	discovery_resolution_rate 	100
scalar Network400.node370 	rate_of_requesters 	1
scalar Network400.node370 	number_of_resources 	22000
scalar Network400.node370 	time_period 	10
scalar Network400.node370 	number_of_messages 	26
scalar Network400.node370 	discovery_latency 	252
scalar Network400.node370 	number_of_desired_resources 	20
scalar Network400.node370 	query_homogenity_rate 	33.333333333333
scalar Network400.node370 	qrecord_time 	65522.460924364
scalar Network400.node370 	discovery_resolution_rate 	100
