version 2
run net400-1-20150716-20:11:39-14395
attr as 1
attr configname net400
attr datetime 20150716-20:11:39
attr dnor 20
attr experiment net400
attr inifile omnetpp.ini
attr iterationvars "$rhdrq=3, $dnor=20, $as=1"
attr iterationvars2 "$rhdrq=3, $dnor=20, $as=1, $repetition=1"
attr measurement "$rhdrq=3, $dnor=20, $as=1"
attr network Network400
attr processid 14395
attr repetition 1
attr replication #1
attr resultdir results
attr rhdrq 3
attr runnumber 1
attr seedset 1

scalar . 	as 	1
scalar . 	dnor 	20
scalar . 	rhdrq 	3
scalar Network400.node120 	rate_of_requesters 	1
scalar Network400.node120 	number_of_resources 	22000
scalar Network400.node120 	time_period 	1
scalar Network400.node120 	number_of_messages 	15
scalar Network400.node120 	discovery_latency 	1692
scalar Network400.node120 	number_of_desired_resources 	20
scalar Network400.node120 	query_homogenity_rate 	33.333333333333
scalar Network400.node120 	qrecord_time 	6382
scalar Network400.node120 	discovery_resolution_rate 	66.666666666667
scalar Network400.node380 	rate_of_requesters 	1
scalar Network400.node380 	number_of_resources 	22000
scalar Network400.node380 	time_period 	1
scalar Network400.node380 	number_of_messages 	20
scalar Network400.node380 	discovery_latency 	1692
scalar Network400.node380 	number_of_desired_resources 	20
scalar Network400.node380 	query_homogenity_rate 	33.333333333333
scalar Network400.node380 	qrecord_time 	6382
scalar Network400.node380 	discovery_resolution_rate 	66.666666666667
scalar Network400.node180 	rate_of_requesters 	1
scalar Network400.node180 	number_of_resources 	22000
scalar Network400.node180 	time_period 	1
scalar Network400.node180 	number_of_messages 	30
scalar Network400.node180 	discovery_latency 	1716
scalar Network400.node180 	number_of_desired_resources 	20
scalar Network400.node180 	query_homogenity_rate 	33.333333333333
scalar Network400.node180 	qrecord_time 	6406
scalar Network400.node180 	discovery_resolution_rate 	66.666666666667
scalar Network400.node260 	rate_of_requesters 	1
scalar Network400.node260 	number_of_resources 	22000
scalar Network400.node260 	time_period 	1
scalar Network400.node260 	number_of_messages 	11
scalar Network400.node260 	discovery_latency 	1740
scalar Network400.node260 	number_of_desired_resources 	20
scalar Network400.node260 	query_homogenity_rate 	33.333333333333
scalar Network400.node260 	qrecord_time 	6466
scalar Network400.node260 	discovery_resolution_rate 	66.666666666667
scalar Network400.node110 	rate_of_requesters 	1
scalar Network400.node110 	number_of_resources 	22000
scalar Network400.node110 	time_period 	1
scalar Network400.node110 	number_of_messages 	16
scalar Network400.node110 	discovery_latency 	1776
scalar Network400.node110 	number_of_desired_resources 	20
scalar Network400.node110 	query_homogenity_rate 	33.333333333333
scalar Network400.node110 	qrecord_time 	6496
scalar Network400.node110 	discovery_resolution_rate 	66.666666666667
scalar Network400.node190 	rate_of_requesters 	1
scalar Network400.node190 	number_of_resources 	22000
scalar Network400.node190 	time_period 	1
scalar Network400.node190 	number_of_messages 	20
scalar Network400.node190 	discovery_latency 	1836
scalar Network400.node190 	number_of_desired_resources 	20
scalar Network400.node190 	query_homogenity_rate 	33.333333333333
scalar Network400.node190 	qrecord_time 	6502
scalar Network400.node190 	discovery_resolution_rate 	66.666666666667
scalar Network400.node310 	rate_of_requesters 	1
scalar Network400.node310 	number_of_resources 	22000
scalar Network400.node310 	time_period 	1
scalar Network400.node310 	number_of_messages 	17
scalar Network400.node310 	discovery_latency 	1860
scalar Network400.node310 	number_of_desired_resources 	20
scalar Network400.node310 	query_homogenity_rate 	33.333333333333
scalar Network400.node310 	qrecord_time 	6508
scalar Network400.node310 	discovery_resolution_rate 	66.666666666667
scalar Network400.node250 	rate_of_requesters 	1
scalar Network400.node250 	number_of_resources 	22000
scalar Network400.node250 	time_period 	1
scalar Network400.node250 	number_of_messages 	11
scalar Network400.node250 	discovery_latency 	1824
scalar Network400.node250 	number_of_desired_resources 	20
scalar Network400.node250 	query_homogenity_rate 	33.333333333333
scalar Network400.node250 	qrecord_time 	6532
scalar Network400.node250 	discovery_resolution_rate 	66.666666666667
scalar Network400.node230 	rate_of_requesters 	1
scalar Network400.node230 	number_of_resources 	22000
scalar Network400.node230 	time_period 	1
scalar Network400.node230 	number_of_messages 	13
scalar Network400.node230 	discovery_latency 	1848
scalar Network400.node230 	number_of_desired_resources 	20
scalar Network400.node230 	query_homogenity_rate 	33.333333333333
scalar Network400.node230 	qrecord_time 	6562
scalar Network400.node230 	discovery_resolution_rate 	66.666666666667
scalar Network400.node10 	rate_of_requesters 	1
scalar Network400.node10 	number_of_resources 	22000
scalar Network400.node10 	time_period 	1
scalar Network400.node10 	number_of_messages 	32
scalar Network400.node10 	discovery_latency 	1824
scalar Network400.node10 	number_of_desired_resources 	20
scalar Network400.node10 	query_homogenity_rate 	33.333333333333
scalar Network400.node10 	qrecord_time 	6574
scalar Network400.node10 	discovery_resolution_rate 	66.666666666667
scalar Network400.node0 	rate_of_requesters 	1
scalar Network400.node0 	number_of_resources 	22000
scalar Network400.node0 	time_period 	1
scalar Network400.node0 	number_of_messages 	14
scalar Network400.node0 	discovery_latency 	1884
scalar Network400.node0 	number_of_desired_resources 	20
scalar Network400.node0 	query_homogenity_rate 	33.333333333333
scalar Network400.node0 	qrecord_time 	6598
scalar Network400.node0 	discovery_resolution_rate 	66.666666666667
scalar Network400.node70 	rate_of_requesters 	1
scalar Network400.node70 	number_of_resources 	22000
scalar Network400.node70 	time_period 	1
scalar Network400.node70 	number_of_messages 	28
scalar Network400.node70 	discovery_latency 	1896
scalar Network400.node70 	number_of_desired_resources 	20
scalar Network400.node70 	query_homogenity_rate 	33.333333333333
scalar Network400.node70 	qrecord_time 	6610
scalar Network400.node70 	discovery_resolution_rate 	66.666666666667
scalar Network400.node160 	rate_of_requesters 	1
scalar Network400.node160 	number_of_resources 	22000
scalar Network400.node160 	time_period 	1
scalar Network400.node160 	number_of_messages 	12
scalar Network400.node160 	discovery_latency 	1908
scalar Network400.node160 	number_of_desired_resources 	20
scalar Network400.node160 	query_homogenity_rate 	33.333333333333
scalar Network400.node160 	qrecord_time 	6640
scalar Network400.node160 	discovery_resolution_rate 	33.333333333333
scalar Network400.node360 	rate_of_requesters 	1
scalar Network400.node360 	number_of_resources 	22000
scalar Network400.node360 	time_period 	1
scalar Network400.node360 	number_of_messages 	15
scalar Network400.node360 	discovery_latency 	1944
scalar Network400.node360 	number_of_desired_resources 	20
scalar Network400.node360 	query_homogenity_rate 	33.333333333333
scalar Network400.node360 	qrecord_time 	6652
scalar Network400.node360 	discovery_resolution_rate 	33.333333333333
scalar Network400.node50 	rate_of_requesters 	1
scalar Network400.node50 	number_of_resources 	22000
scalar Network400.node50 	time_period 	1
scalar Network400.node50 	number_of_messages 	21
scalar Network400.node50 	discovery_latency 	1968
scalar Network400.node50 	number_of_desired_resources 	20
scalar Network400.node50 	query_homogenity_rate 	33.333333333333
scalar Network400.node50 	qrecord_time 	6658
scalar Network400.node50 	discovery_resolution_rate 	33.333333333333
scalar Network400.node80 	rate_of_requesters 	1
scalar Network400.node80 	number_of_resources 	22000
scalar Network400.node80 	time_period 	1
scalar Network400.node80 	number_of_messages 	21
scalar Network400.node80 	discovery_latency 	1920
scalar Network400.node80 	number_of_desired_resources 	20
scalar Network400.node80 	query_homogenity_rate 	33.333333333333
scalar Network400.node80 	qrecord_time 	6670
scalar Network400.node80 	discovery_resolution_rate 	66.666666666667
scalar Network400.node280 	rate_of_requesters 	1
scalar Network400.node280 	number_of_resources 	22000
scalar Network400.node280 	time_period 	1
scalar Network400.node280 	number_of_messages 	6
scalar Network400.node280 	discovery_latency 	2028
scalar Network400.node280 	number_of_desired_resources 	20
scalar Network400.node280 	query_homogenity_rate 	33.333333333333
scalar Network400.node280 	qrecord_time 	6670
scalar Network400.node280 	discovery_resolution_rate 	33.333333333333
scalar Network400.node150 	rate_of_requesters 	1
scalar Network400.node150 	number_of_resources 	22000
scalar Network400.node150 	time_period 	1
scalar Network400.node150 	number_of_messages 	96
scalar Network400.node150 	discovery_latency 	1992
scalar Network400.node150 	number_of_desired_resources 	20
scalar Network400.node150 	query_homogenity_rate 	33.333333333333
scalar Network400.node150 	qrecord_time 	6682
scalar Network400.node150 	discovery_resolution_rate 	50
scalar Network400.node210 	rate_of_requesters 	1
scalar Network400.node210 	number_of_resources 	22000
scalar Network400.node210 	time_period 	1
scalar Network400.node210 	number_of_messages 	6
scalar Network400.node210 	discovery_latency 	1968
scalar Network400.node210 	number_of_desired_resources 	20
scalar Network400.node210 	query_homogenity_rate 	33.333333333333
scalar Network400.node210 	qrecord_time 	6682
scalar Network400.node210 	discovery_resolution_rate 	33.333333333333
scalar Network400.node370 	rate_of_requesters 	1
scalar Network400.node370 	number_of_resources 	22000
scalar Network400.node370 	time_period 	1
scalar Network400.node370 	number_of_messages 	4
scalar Network400.node370 	discovery_latency 	2016
scalar Network400.node370 	number_of_desired_resources 	20
scalar Network400.node370 	query_homogenity_rate 	33.333333333333
scalar Network400.node370 	qrecord_time 	6706
scalar Network400.node370 	discovery_resolution_rate 	33.333333333333
scalar Network400.node90 	rate_of_requesters 	1
scalar Network400.node90 	number_of_resources 	22000
scalar Network400.node90 	time_period 	1
scalar Network400.node90 	number_of_messages 	5
scalar Network400.node90 	discovery_latency 	2028
scalar Network400.node90 	number_of_desired_resources 	20
scalar Network400.node90 	query_homogenity_rate 	33.333333333333
scalar Network400.node90 	qrecord_time 	6712
scalar Network400.node90 	discovery_resolution_rate 	33.333333333333
scalar Network400.node30 	rate_of_requesters 	1
scalar Network400.node30 	number_of_resources 	22000
scalar Network400.node30 	time_period 	1
scalar Network400.node30 	number_of_messages 	13
scalar Network400.node30 	discovery_latency 	2004
scalar Network400.node30 	number_of_desired_resources 	20
scalar Network400.node30 	query_homogenity_rate 	33.333333333333
scalar Network400.node30 	qrecord_time 	6754
scalar Network400.node30 	discovery_resolution_rate 	33.333333333333
scalar Network400.node170 	rate_of_requesters 	1
scalar Network400.node170 	number_of_resources 	22000
scalar Network400.node170 	time_period 	1
scalar Network400.node170 	number_of_messages 	5
scalar Network400.node170 	discovery_latency 	2004
scalar Network400.node170 	number_of_desired_resources 	20
scalar Network400.node170 	query_homogenity_rate 	33.333333333333
scalar Network400.node170 	qrecord_time 	6754
scalar Network400.node170 	discovery_resolution_rate 	33.333333333333
scalar Network400.node390 	rate_of_requesters 	1
scalar Network400.node390 	number_of_resources 	22000
scalar Network400.node390 	time_period 	1
scalar Network400.node390 	number_of_messages 	5
scalar Network400.node390 	discovery_latency 	2064
scalar Network400.node390 	number_of_desired_resources 	20
scalar Network400.node390 	query_homogenity_rate 	33.333333333333
scalar Network400.node390 	qrecord_time 	6754
scalar Network400.node390 	discovery_resolution_rate 	33.333333333333
scalar Network400.node40 	rate_of_requesters 	1
scalar Network400.node40 	number_of_resources 	22000
scalar Network400.node40 	time_period 	1
scalar Network400.node40 	number_of_messages 	15
scalar Network400.node40 	discovery_latency 	2064
scalar Network400.node40 	number_of_desired_resources 	20
scalar Network400.node40 	query_homogenity_rate 	33.333333333333
scalar Network400.node40 	qrecord_time 	6790
scalar Network400.node40 	discovery_resolution_rate 	33.333333333333
scalar Network400.node240 	rate_of_requesters 	1
scalar Network400.node240 	number_of_resources 	22000
scalar Network400.node240 	time_period 	1
scalar Network400.node240 	number_of_messages 	16
scalar Network400.node240 	discovery_latency 	2088
scalar Network400.node240 	number_of_desired_resources 	20
scalar Network400.node240 	query_homogenity_rate 	33.333333333333
scalar Network400.node240 	qrecord_time 	6802
scalar Network400.node240 	discovery_resolution_rate 	33.333333333333
scalar Network400.node320 	rate_of_requesters 	1
scalar Network400.node320 	number_of_resources 	22000
scalar Network400.node320 	time_period 	1
scalar Network400.node320 	number_of_messages 	17
scalar Network400.node320 	discovery_latency 	2052
scalar Network400.node320 	number_of_desired_resources 	20
scalar Network400.node320 	query_homogenity_rate 	33.333333333333
scalar Network400.node320 	qrecord_time 	6802
scalar Network400.node320 	discovery_resolution_rate 	33.333333333333
scalar Network400.node330 	rate_of_requesters 	1
scalar Network400.node330 	number_of_resources 	22000
scalar Network400.node330 	time_period 	1
scalar Network400.node330 	number_of_messages 	13
scalar Network400.node330 	discovery_latency 	1956
scalar Network400.node330 	number_of_desired_resources 	20
scalar Network400.node330 	query_homogenity_rate 	33.333333333333
scalar Network400.node330 	qrecord_time 	6808
scalar Network400.node330 	discovery_resolution_rate 	33.333333333333
scalar Network400.node270 	rate_of_requesters 	1
scalar Network400.node270 	number_of_resources 	22000
scalar Network400.node270 	time_period 	1
scalar Network400.node270 	number_of_messages 	5
scalar Network400.node270 	discovery_latency 	2064
scalar Network400.node270 	number_of_desired_resources 	20
scalar Network400.node270 	query_homogenity_rate 	33.333333333333
scalar Network400.node270 	qrecord_time 	6814
scalar Network400.node270 	discovery_resolution_rate 	33.333333333333
scalar Network400.node140 	rate_of_requesters 	1
scalar Network400.node140 	number_of_resources 	22000
scalar Network400.node140 	time_period 	1
scalar Network400.node140 	number_of_messages 	6
scalar Network400.node140 	discovery_latency 	2088
scalar Network400.node140 	number_of_desired_resources 	20
scalar Network400.node140 	query_homogenity_rate 	33.333333333333
scalar Network400.node140 	qrecord_time 	6820
scalar Network400.node140 	discovery_resolution_rate 	33.333333333333
scalar Network400.node300 	rate_of_requesters 	1
scalar Network400.node300 	number_of_resources 	22000
scalar Network400.node300 	time_period 	1
scalar Network400.node300 	number_of_messages 	5
scalar Network400.node300 	discovery_latency 	2136
scalar Network400.node300 	number_of_desired_resources 	20
scalar Network400.node300 	query_homogenity_rate 	33.333333333333
scalar Network400.node300 	qrecord_time 	6826
scalar Network400.node300 	discovery_resolution_rate 	33.333333333333
scalar Network400.node350 	rate_of_requesters 	1
scalar Network400.node350 	number_of_resources 	22000
scalar Network400.node350 	time_period 	1
scalar Network400.node350 	number_of_messages 	13
scalar Network400.node350 	discovery_latency 	2076
scalar Network400.node350 	number_of_desired_resources 	20
scalar Network400.node350 	query_homogenity_rate 	33.333333333333
scalar Network400.node350 	qrecord_time 	6844
scalar Network400.node350 	discovery_resolution_rate 	33.333333333333
scalar Network400.node220 	rate_of_requesters 	1
scalar Network400.node220 	number_of_resources 	22000
scalar Network400.node220 	time_period 	1
scalar Network400.node220 	number_of_messages 	17
scalar Network400.node220 	discovery_latency 	2100
scalar Network400.node220 	number_of_desired_resources 	20
scalar Network400.node220 	query_homogenity_rate 	33.333333333333
scalar Network400.node220 	qrecord_time 	6850
scalar Network400.node220 	discovery_resolution_rate 	33.333333333333
scalar Network400.node340 	rate_of_requesters 	1
scalar Network400.node340 	number_of_resources 	22000
scalar Network400.node340 	time_period 	1
scalar Network400.node340 	number_of_messages 	53
scalar Network400.node340 	discovery_latency 	2124
scalar Network400.node340 	number_of_desired_resources 	20
scalar Network400.node340 	query_homogenity_rate 	33.333333333333
scalar Network400.node340 	qrecord_time 	6862
scalar Network400.node340 	discovery_resolution_rate 	33.333333333333
scalar Network400.node130 	rate_of_requesters 	1
scalar Network400.node130 	number_of_resources 	22000
scalar Network400.node130 	time_period 	1
scalar Network400.node130 	number_of_messages 	7
scalar Network400.node130 	discovery_latency 	2088
scalar Network400.node130 	number_of_desired_resources 	20
scalar Network400.node130 	query_homogenity_rate 	33.333333333333
scalar Network400.node130 	qrecord_time 	6868
scalar Network400.node130 	discovery_resolution_rate 	33.333333333333
scalar Network400.node290 	rate_of_requesters 	1
scalar Network400.node290 	number_of_resources 	22000
scalar Network400.node290 	time_period 	1
scalar Network400.node290 	number_of_messages 	13
scalar Network400.node290 	discovery_latency 	2100
scalar Network400.node290 	number_of_desired_resources 	20
scalar Network400.node290 	query_homogenity_rate 	33.333333333333
scalar Network400.node290 	qrecord_time 	6880
scalar Network400.node290 	discovery_resolution_rate 	33.333333333333
scalar Network400.node100 	rate_of_requesters 	1
scalar Network400.node100 	number_of_resources 	22000
scalar Network400.node100 	time_period 	1
scalar Network400.node100 	number_of_messages 	5
scalar Network400.node100 	discovery_latency 	2112
scalar Network400.node100 	number_of_desired_resources 	20
scalar Network400.node100 	query_homogenity_rate 	33.333333333333
scalar Network400.node100 	qrecord_time 	6880
scalar Network400.node100 	discovery_resolution_rate 	33.333333333333
scalar Network400.node200 	rate_of_requesters 	1
scalar Network400.node200 	number_of_resources 	22000
scalar Network400.node200 	time_period 	1
scalar Network400.node200 	number_of_messages 	9
scalar Network400.node200 	discovery_latency 	2196
scalar Network400.node200 	number_of_desired_resources 	20
scalar Network400.node200 	query_homogenity_rate 	33.333333333333
scalar Network400.node200 	qrecord_time 	6886
scalar Network400.node200 	discovery_resolution_rate 	33.333333333333
scalar Network400.node20 	rate_of_requesters 	1
scalar Network400.node20 	number_of_resources 	22000
scalar Network400.node20 	time_period 	1
scalar Network400.node20 	number_of_messages 	18
scalar Network400.node20 	discovery_latency 	2148
scalar Network400.node20 	number_of_desired_resources 	20
scalar Network400.node20 	query_homogenity_rate 	33.333333333333
scalar Network400.node20 	qrecord_time 	6886
scalar Network400.node20 	discovery_resolution_rate 	33.333333333333
scalar Network400.node60 	rate_of_requesters 	1
scalar Network400.node60 	number_of_resources 	22000
scalar Network400.node60 	time_period 	1
scalar Network400.node60 	number_of_messages 	18
scalar Network400.node60 	discovery_latency 	2040
scalar Network400.node60 	number_of_desired_resources 	20
scalar Network400.node60 	query_homogenity_rate 	33.333333333333
scalar Network400.node60 	qrecord_time 	6892
scalar Network400.node60 	discovery_resolution_rate 	33.333333333333
scalar Network400.node20 	rate_of_requesters 	1
scalar Network400.node20 	number_of_resources 	22000
scalar Network400.node20 	time_period 	2
scalar Network400.node20 	number_of_messages 	10
scalar Network400.node20 	discovery_latency 	2124
scalar Network400.node20 	number_of_desired_resources 	20
scalar Network400.node20 	query_homogenity_rate 	33.333333333333
scalar Network400.node20 	qrecord_time 	7051.49337064
scalar Network400.node20 	discovery_resolution_rate 	33.333333333333
scalar Network400.node370 	rate_of_requesters 	1
scalar Network400.node370 	number_of_resources 	22000
scalar Network400.node370 	time_period 	2
scalar Network400.node370 	number_of_messages 	11
scalar Network400.node370 	discovery_latency 	2208
scalar Network400.node370 	number_of_desired_resources 	20
scalar Network400.node370 	query_homogenity_rate 	33.333333333333
scalar Network400.node370 	qrecord_time 	7167.416038861
scalar Network400.node370 	discovery_resolution_rate 	33.333333333333
scalar Network400.node190 	rate_of_requesters 	1
scalar Network400.node190 	number_of_resources 	22000
scalar Network400.node190 	time_period 	2
scalar Network400.node190 	number_of_messages 	71
scalar Network400.node190 	discovery_latency 	2076
scalar Network400.node190 	number_of_desired_resources 	20
scalar Network400.node190 	query_homogenity_rate 	33.333333333333
scalar Network400.node190 	qrecord_time 	7201.031115652
scalar Network400.node190 	discovery_resolution_rate 	33.333333333333
scalar Network400.node210 	rate_of_requesters 	1
scalar Network400.node210 	number_of_resources 	22000
scalar Network400.node210 	time_period 	2
scalar Network400.node210 	number_of_messages 	75
scalar Network400.node210 	discovery_latency 	2100
scalar Network400.node210 	number_of_desired_resources 	20
scalar Network400.node210 	query_homogenity_rate 	33.333333333333
scalar Network400.node210 	qrecord_time 	7299.82071443
scalar Network400.node210 	discovery_resolution_rate 	33.333333333333
scalar Network400.node310 	rate_of_requesters 	1
scalar Network400.node310 	number_of_resources 	22000
scalar Network400.node310 	time_period 	2
scalar Network400.node310 	number_of_messages 	34
scalar Network400.node310 	discovery_latency 	2148
scalar Network400.node310 	number_of_desired_resources 	20
scalar Network400.node310 	query_homogenity_rate 	33.333333333333
scalar Network400.node310 	qrecord_time 	7430.815648046
scalar Network400.node310 	discovery_resolution_rate 	33.333333333333
scalar Network400.node70 	rate_of_requesters 	1
scalar Network400.node70 	number_of_resources 	22000
scalar Network400.node70 	time_period 	2
scalar Network400.node70 	number_of_messages 	13
scalar Network400.node70 	discovery_latency 	2124
scalar Network400.node70 	number_of_desired_resources 	20
scalar Network400.node70 	query_homogenity_rate 	33.333333333333
scalar Network400.node70 	qrecord_time 	7480.87891147
scalar Network400.node70 	discovery_resolution_rate 	33.333333333333
scalar Network400.node70 	rate_of_requesters 	1
scalar Network400.node70 	number_of_resources 	22000
scalar Network400.node70 	time_period 	3
scalar Network400.node70 	number_of_messages 	54
scalar Network400.node70 	discovery_latency 	2064
scalar Network400.node70 	number_of_desired_resources 	20
scalar Network400.node70 	query_homogenity_rate 	33.333333333333
scalar Network400.node70 	qrecord_time 	7577.805273028
scalar Network400.node70 	discovery_resolution_rate 	33.333333333333
scalar Network400.node0 	rate_of_requesters 	1
scalar Network400.node0 	number_of_resources 	22000
scalar Network400.node0 	time_period 	2
scalar Network400.node0 	number_of_messages 	47
scalar Network400.node0 	discovery_latency 	2004
scalar Network400.node0 	number_of_desired_resources 	20
scalar Network400.node0 	query_homogenity_rate 	33.333333333333
scalar Network400.node0 	qrecord_time 	7630.779988853
scalar Network400.node0 	discovery_resolution_rate 	33.333333333333
scalar Network400.node20 	rate_of_requesters 	1
scalar Network400.node20 	number_of_resources 	22000
scalar Network400.node20 	time_period 	3
scalar Network400.node20 	number_of_messages 	116
scalar Network400.node20 	discovery_latency 	1998
scalar Network400.node20 	number_of_desired_resources 	20
scalar Network400.node20 	query_homogenity_rate 	33.333333333333
scalar Network400.node20 	qrecord_time 	7651.096941983
scalar Network400.node20 	discovery_resolution_rate 	33.333333333333
scalar Network400.node290 	rate_of_requesters 	1
scalar Network400.node290 	number_of_resources 	22000
scalar Network400.node290 	time_period 	2
scalar Network400.node290 	number_of_messages 	35
scalar Network400.node290 	discovery_latency 	2040
scalar Network400.node290 	number_of_desired_resources 	20
scalar Network400.node290 	query_homogenity_rate 	33.333333333333
scalar Network400.node290 	qrecord_time 	7897.150415208
scalar Network400.node290 	discovery_resolution_rate 	33.333333333333
scalar Network400.node290 	rate_of_requesters 	1
scalar Network400.node290 	number_of_resources 	22000
scalar Network400.node290 	time_period 	3
scalar Network400.node290 	number_of_messages 	86
scalar Network400.node290 	discovery_latency 	1932
scalar Network400.node290 	number_of_desired_resources 	20
scalar Network400.node290 	query_homogenity_rate 	33.333333333333
scalar Network400.node290 	qrecord_time 	8051.193027564
scalar Network400.node290 	discovery_resolution_rate 	33.333333333333
scalar Network400.node150 	rate_of_requesters 	1
scalar Network400.node150 	number_of_resources 	22000
scalar Network400.node150 	time_period 	2
scalar Network400.node150 	number_of_messages 	113
scalar Network400.node150 	discovery_latency 	2022
scalar Network400.node150 	number_of_desired_resources 	20
scalar Network400.node150 	query_homogenity_rate 	33.333333333333
scalar Network400.node150 	qrecord_time 	8323.563971801
scalar Network400.node150 	discovery_resolution_rate 	33.333333333333
scalar Network400.node170 	rate_of_requesters 	1
scalar Network400.node170 	number_of_resources 	22000
scalar Network400.node170 	time_period 	2
scalar Network400.node170 	number_of_messages 	120
scalar Network400.node170 	discovery_latency 	2334
scalar Network400.node170 	number_of_desired_resources 	20
scalar Network400.node170 	query_homogenity_rate 	33.333333333333
scalar Network400.node170 	qrecord_time 	8354.957137784
scalar Network400.node170 	discovery_resolution_rate 	33.333333333333
scalar Network400.node350 	rate_of_requesters 	1
scalar Network400.node350 	number_of_resources 	22000
scalar Network400.node350 	time_period 	2
scalar Network400.node350 	number_of_messages 	132
scalar Network400.node350 	discovery_latency 	2478
scalar Network400.node350 	number_of_desired_resources 	20
scalar Network400.node350 	query_homogenity_rate 	33.333333333333
scalar Network400.node350 	qrecord_time 	8360.406604341
scalar Network400.node350 	discovery_resolution_rate 	33.333333333333
scalar Network400.node150 	rate_of_requesters 	1
scalar Network400.node150 	number_of_resources 	22000
scalar Network400.node150 	time_period 	3
scalar Network400.node150 	number_of_messages 	113
scalar Network400.node150 	discovery_latency 	2064
scalar Network400.node150 	number_of_desired_resources 	20
scalar Network400.node150 	query_homogenity_rate 	33.333333333333
scalar Network400.node150 	qrecord_time 	8436.683577837
scalar Network400.node150 	discovery_resolution_rate 	33.333333333333
scalar Network400.node130 	rate_of_requesters 	1
scalar Network400.node130 	number_of_resources 	22000
scalar Network400.node130 	time_period 	2
scalar Network400.node130 	number_of_messages 	149
scalar Network400.node130 	discovery_latency 	2898
scalar Network400.node130 	number_of_desired_resources 	20
scalar Network400.node130 	query_homogenity_rate 	33.333333333333
scalar Network400.node130 	qrecord_time 	8686.118926546
scalar Network400.node130 	discovery_resolution_rate 	33.333333333333
scalar Network400.node240 	rate_of_requesters 	1
scalar Network400.node240 	number_of_resources 	22000
scalar Network400.node240 	time_period 	2
scalar Network400.node240 	number_of_messages 	130
scalar Network400.node240 	discovery_latency 	2418
scalar Network400.node240 	number_of_desired_resources 	20
scalar Network400.node240 	query_homogenity_rate 	33.333333333333
scalar Network400.node240 	qrecord_time 	8695.678927318
scalar Network400.node240 	discovery_resolution_rate 	33.333333333333
scalar Network400.node280 	rate_of_requesters 	1
scalar Network400.node280 	number_of_resources 	22000
scalar Network400.node280 	time_period 	2
scalar Network400.node280 	number_of_messages 	61
scalar Network400.node280 	discovery_latency 	2076
scalar Network400.node280 	number_of_desired_resources 	20
scalar Network400.node280 	query_homogenity_rate 	33.333333333333
scalar Network400.node280 	qrecord_time 	9071.447187862
scalar Network400.node280 	discovery_resolution_rate 	33.333333333333
scalar Network400.node320 	rate_of_requesters 	1
scalar Network400.node320 	number_of_resources 	22000
scalar Network400.node320 	time_period 	2
scalar Network400.node320 	number_of_messages 	37
scalar Network400.node320 	discovery_latency 	2004
scalar Network400.node320 	number_of_desired_resources 	20
scalar Network400.node320 	query_homogenity_rate 	33.333333333333
scalar Network400.node320 	qrecord_time 	9288.107118196
scalar Network400.node320 	discovery_resolution_rate 	33.333333333333
scalar Network400.node60 	rate_of_requesters 	1
scalar Network400.node60 	number_of_resources 	22000
scalar Network400.node60 	time_period 	2
scalar Network400.node60 	number_of_messages 	65
scalar Network400.node60 	discovery_latency 	2076
scalar Network400.node60 	number_of_desired_resources 	20
scalar Network400.node60 	query_homogenity_rate 	33.333333333333
scalar Network400.node60 	qrecord_time 	9321.979147684
scalar Network400.node60 	discovery_resolution_rate 	33.333333333333
scalar Network400.node0 	rate_of_requesters 	1
scalar Network400.node0 	number_of_resources 	22000
scalar Network400.node0 	time_period 	3
scalar Network400.node0 	number_of_messages 	71
scalar Network400.node0 	discovery_latency 	2064
scalar Network400.node0 	number_of_desired_resources 	20
scalar Network400.node0 	query_homogenity_rate 	33.333333333333
scalar Network400.node0 	qrecord_time 	9381.997195699
scalar Network400.node0 	discovery_resolution_rate 	33.333333333333
scalar Network400.node260 	rate_of_requesters 	1
scalar Network400.node260 	number_of_resources 	22000
scalar Network400.node260 	time_period 	2
scalar Network400.node260 	number_of_messages 	38
scalar Network400.node260 	discovery_latency 	2028
scalar Network400.node260 	number_of_desired_resources 	20
scalar Network400.node260 	query_homogenity_rate 	33.333333333333
scalar Network400.node260 	qrecord_time 	9405.205539062
scalar Network400.node260 	discovery_resolution_rate 	33.333333333333
scalar Network400.node20 	rate_of_requesters 	1
scalar Network400.node20 	number_of_resources 	22000
scalar Network400.node20 	time_period 	4
scalar Network400.node20 	number_of_messages 	161
scalar Network400.node20 	discovery_latency 	2994
scalar Network400.node20 	number_of_desired_resources 	20
scalar Network400.node20 	query_homogenity_rate 	33.333333333333
scalar Network400.node20 	qrecord_time 	9499.824677915
scalar Network400.node20 	discovery_resolution_rate 	33.333333333333
scalar Network400.node30 	rate_of_requesters 	1
scalar Network400.node30 	number_of_resources 	22000
scalar Network400.node30 	time_period 	2
scalar Network400.node30 	number_of_messages 	76
scalar Network400.node30 	discovery_latency 	2112
scalar Network400.node30 	number_of_desired_resources 	20
scalar Network400.node30 	query_homogenity_rate 	33.333333333333
scalar Network400.node30 	qrecord_time 	9574.196504942
scalar Network400.node30 	discovery_resolution_rate 	33.333333333333
scalar Network400.node300 	rate_of_requesters 	1
scalar Network400.node300 	number_of_resources 	22000
scalar Network400.node300 	time_period 	2
scalar Network400.node300 	number_of_messages 	50
scalar Network400.node300 	discovery_latency 	2040
scalar Network400.node300 	number_of_desired_resources 	20
scalar Network400.node300 	query_homogenity_rate 	33.333333333333
scalar Network400.node300 	qrecord_time 	9598.368633274
scalar Network400.node300 	discovery_resolution_rate 	33.333333333333
scalar Network400.node120 	rate_of_requesters 	1
scalar Network400.node120 	number_of_resources 	22000
scalar Network400.node120 	time_period 	2
scalar Network400.node120 	number_of_messages 	173
scalar Network400.node120 	discovery_latency 	3234
scalar Network400.node120 	number_of_desired_resources 	20
scalar Network400.node120 	query_homogenity_rate 	33.333333333333
scalar Network400.node120 	qrecord_time 	9700.230466452
scalar Network400.node120 	discovery_resolution_rate 	16.666666666667
scalar Network400.node110 	rate_of_requesters 	1
scalar Network400.node110 	number_of_resources 	22000
scalar Network400.node110 	time_period 	2
scalar Network400.node110 	number_of_messages 	126
scalar Network400.node110 	discovery_latency 	1944
scalar Network400.node110 	number_of_desired_resources 	20
scalar Network400.node110 	query_homogenity_rate 	33.333333333333
scalar Network400.node110 	qrecord_time 	9748.35291757
scalar Network400.node110 	discovery_resolution_rate 	50
scalar Network400.node260 	rate_of_requesters 	1
scalar Network400.node260 	number_of_resources 	22000
scalar Network400.node260 	time_period 	3
scalar Network400.node260 	number_of_messages 	16
scalar Network400.node260 	discovery_latency 	1824
scalar Network400.node260 	number_of_desired_resources 	20
scalar Network400.node260 	query_homogenity_rate 	33.333333333333
scalar Network400.node260 	qrecord_time 	9887.232485939
scalar Network400.node260 	discovery_resolution_rate 	66.666666666667
scalar Network400.node250 	rate_of_requesters 	1
scalar Network400.node250 	number_of_resources 	22000
scalar Network400.node250 	time_period 	2
scalar Network400.node250 	number_of_messages 	2
scalar Network400.node250 	discovery_latency 	3162
scalar Network400.node250 	number_of_desired_resources 	20
scalar Network400.node250 	query_homogenity_rate 	33.333333333333
scalar Network400.node250 	qrecord_time 	9998.294726799
scalar Network400.node250 	discovery_resolution_rate 	0
scalar Network400.node40 	rate_of_requesters 	1
scalar Network400.node40 	number_of_resources 	22000
scalar Network400.node40 	time_period 	2
scalar Network400.node40 	number_of_messages 	53
scalar Network400.node40 	discovery_latency 	1980
scalar Network400.node40 	number_of_desired_resources 	20
scalar Network400.node40 	query_homogenity_rate 	33.333333333333
scalar Network400.node40 	qrecord_time 	10179.980784677
scalar Network400.node40 	discovery_resolution_rate 	33.333333333333
scalar Network400.node280 	rate_of_requesters 	1
scalar Network400.node280 	number_of_resources 	22000
scalar Network400.node280 	time_period 	3
scalar Network400.node280 	number_of_messages 	53
scalar Network400.node280 	discovery_latency 	1992
scalar Network400.node280 	number_of_desired_resources 	20
scalar Network400.node280 	query_homogenity_rate 	33.333333333333
scalar Network400.node280 	qrecord_time 	10188.625688291
scalar Network400.node280 	discovery_resolution_rate 	33.333333333333
scalar Network400.node20 	rate_of_requesters 	1
scalar Network400.node20 	number_of_resources 	22000
scalar Network400.node20 	time_period 	5
scalar Network400.node20 	number_of_messages 	53
scalar Network400.node20 	discovery_latency 	1968
scalar Network400.node20 	number_of_desired_resources 	20
scalar Network400.node20 	query_homogenity_rate 	33.333333333333
scalar Network400.node20 	qrecord_time 	10318.156717582
scalar Network400.node20 	discovery_resolution_rate 	33.333333333333
scalar Network400.node110 	rate_of_requesters 	1
scalar Network400.node110 	number_of_resources 	22000
scalar Network400.node110 	time_period 	3
scalar Network400.node110 	number_of_messages 	42
scalar Network400.node110 	discovery_latency 	1956
scalar Network400.node110 	number_of_desired_resources 	20
scalar Network400.node110 	query_homogenity_rate 	33.333333333333
scalar Network400.node110 	qrecord_time 	10427.647381221
scalar Network400.node110 	discovery_resolution_rate 	33.333333333333
scalar Network400.node230 	rate_of_requesters 	1
scalar Network400.node230 	number_of_resources 	22000
scalar Network400.node230 	time_period 	2
scalar Network400.node230 	number_of_messages 	47
scalar Network400.node230 	discovery_latency 	2028
scalar Network400.node230 	number_of_desired_resources 	20
scalar Network400.node230 	query_homogenity_rate 	33.333333333333
scalar Network400.node230 	qrecord_time 	10439.370766845
scalar Network400.node230 	discovery_resolution_rate 	33.333333333333
scalar Network400.node150 	rate_of_requesters 	1
scalar Network400.node150 	number_of_resources 	22000
scalar Network400.node150 	time_period 	4
scalar Network400.node150 	number_of_messages 	52
scalar Network400.node150 	discovery_latency 	2124
scalar Network400.node150 	number_of_desired_resources 	20
scalar Network400.node150 	query_homogenity_rate 	33.333333333333
scalar Network400.node150 	qrecord_time 	10463.783129244
scalar Network400.node150 	discovery_resolution_rate 	33.333333333333
scalar Network400.node20 	rate_of_requesters 	1
scalar Network400.node20 	number_of_resources 	22000
scalar Network400.node20 	time_period 	6
scalar Network400.node20 	number_of_messages 	33
scalar Network400.node20 	discovery_latency 	2052
scalar Network400.node20 	number_of_desired_resources 	20
scalar Network400.node20 	query_homogenity_rate 	33.333333333333
scalar Network400.node20 	qrecord_time 	10604.386841366
scalar Network400.node20 	discovery_resolution_rate 	33.333333333333
scalar Network400.node280 	rate_of_requesters 	1
scalar Network400.node280 	number_of_resources 	22000
scalar Network400.node280 	time_period 	4
scalar Network400.node280 	number_of_messages 	31
scalar Network400.node280 	discovery_latency 	1860
scalar Network400.node280 	number_of_desired_resources 	20
scalar Network400.node280 	query_homogenity_rate 	33.333333333333
scalar Network400.node280 	qrecord_time 	10638.252770349
scalar Network400.node280 	discovery_resolution_rate 	66.666666666667
scalar Network400.node10 	rate_of_requesters 	1
scalar Network400.node10 	number_of_resources 	22000
scalar Network400.node10 	time_period 	2
scalar Network400.node10 	number_of_messages 	76
scalar Network400.node10 	discovery_latency 	1788
scalar Network400.node10 	number_of_desired_resources 	20
scalar Network400.node10 	query_homogenity_rate 	33.333333333333
scalar Network400.node10 	qrecord_time 	10786.681004553
scalar Network400.node10 	discovery_resolution_rate 	66.666666666667
scalar Network400.node340 	rate_of_requesters 	1
scalar Network400.node340 	number_of_resources 	22000
scalar Network400.node340 	time_period 	2
scalar Network400.node340 	number_of_messages 	37
scalar Network400.node340 	discovery_latency 	2028
scalar Network400.node340 	number_of_desired_resources 	20
scalar Network400.node340 	query_homogenity_rate 	33.333333333333
scalar Network400.node340 	qrecord_time 	10837.941077514
scalar Network400.node340 	discovery_resolution_rate 	33.333333333333
scalar Network400.node150 	rate_of_requesters 	1
scalar Network400.node150 	number_of_resources 	22000
scalar Network400.node150 	time_period 	5
scalar Network400.node150 	number_of_messages 	28
scalar Network400.node150 	discovery_latency 	1956
scalar Network400.node150 	number_of_desired_resources 	20
scalar Network400.node150 	query_homogenity_rate 	33.333333333333
scalar Network400.node150 	qrecord_time 	10962.974935666
scalar Network400.node150 	discovery_resolution_rate 	33.333333333333
scalar Network400.node80 	rate_of_requesters 	1
scalar Network400.node80 	number_of_resources 	22000
scalar Network400.node80 	time_period 	2
scalar Network400.node80 	number_of_messages 	66
scalar Network400.node80 	discovery_latency 	1932
scalar Network400.node80 	number_of_desired_resources 	20
scalar Network400.node80 	query_homogenity_rate 	33.333333333333
scalar Network400.node80 	qrecord_time 	11007.508191314
scalar Network400.node80 	discovery_resolution_rate 	33.333333333333
scalar Network400.node330 	rate_of_requesters 	1
scalar Network400.node330 	number_of_resources 	22000
scalar Network400.node330 	time_period 	2
scalar Network400.node330 	number_of_messages 	49
scalar Network400.node330 	discovery_latency 	2004
scalar Network400.node330 	number_of_desired_resources 	20
scalar Network400.node330 	query_homogenity_rate 	33.333333333333
scalar Network400.node330 	qrecord_time 	11073.622392595
scalar Network400.node330 	discovery_resolution_rate 	33.333333333333
scalar Network400.node180 	rate_of_requesters 	1
scalar Network400.node180 	number_of_resources 	22000
scalar Network400.node180 	time_period 	2
scalar Network400.node180 	number_of_messages 	53
scalar Network400.node180 	discovery_latency 	1944
scalar Network400.node180 	number_of_desired_resources 	20
scalar Network400.node180 	query_homogenity_rate 	33.333333333333
scalar Network400.node180 	qrecord_time 	11189.229429106
scalar Network400.node180 	discovery_resolution_rate 	33.333333333333
scalar Network400.node210 	rate_of_requesters 	1
scalar Network400.node210 	number_of_resources 	22000
scalar Network400.node210 	time_period 	3
scalar Network400.node210 	number_of_messages 	44
scalar Network400.node210 	discovery_latency 	1956
scalar Network400.node210 	number_of_desired_resources 	20
scalar Network400.node210 	query_homogenity_rate 	33.333333333333
scalar Network400.node210 	qrecord_time 	11200.388948995
scalar Network400.node210 	discovery_resolution_rate 	33.333333333333
scalar Network400.node20 	rate_of_requesters 	1
scalar Network400.node20 	number_of_resources 	22000
scalar Network400.node20 	time_period 	7
scalar Network400.node20 	number_of_messages 	63
scalar Network400.node20 	discovery_latency 	2040
scalar Network400.node20 	number_of_desired_resources 	20
scalar Network400.node20 	query_homogenity_rate 	33.333333333333
scalar Network400.node20 	qrecord_time 	11244.576001664
scalar Network400.node20 	discovery_resolution_rate 	33.333333333333
scalar Network400.node70 	rate_of_requesters 	1
scalar Network400.node70 	number_of_resources 	22000
scalar Network400.node70 	time_period 	4
scalar Network400.node70 	number_of_messages 	71
scalar Network400.node70 	discovery_latency 	2076
scalar Network400.node70 	number_of_desired_resources 	20
scalar Network400.node70 	query_homogenity_rate 	33.333333333333
scalar Network400.node70 	qrecord_time 	11414.567180128
scalar Network400.node70 	discovery_resolution_rate 	33.333333333333
scalar Network400.node10 	rate_of_requesters 	1
scalar Network400.node10 	number_of_resources 	22000
scalar Network400.node10 	time_period 	3
scalar Network400.node10 	number_of_messages 	105
scalar Network400.node10 	discovery_latency 	2028
scalar Network400.node10 	number_of_desired_resources 	20
scalar Network400.node10 	query_homogenity_rate 	33.333333333333
scalar Network400.node10 	qrecord_time 	11423.404612883
scalar Network400.node10 	discovery_resolution_rate 	50
scalar Network400.node90 	rate_of_requesters 	1
scalar Network400.node90 	number_of_resources 	22000
scalar Network400.node90 	time_period 	2
scalar Network400.node90 	number_of_messages 	26
scalar Network400.node90 	discovery_latency 	1884
scalar Network400.node90 	number_of_desired_resources 	20
scalar Network400.node90 	query_homogenity_rate 	33.333333333333
scalar Network400.node90 	qrecord_time 	11457.755574513
scalar Network400.node90 	discovery_resolution_rate 	33.333333333333
scalar Network400.node160 	rate_of_requesters 	1
scalar Network400.node160 	number_of_resources 	22000
scalar Network400.node160 	time_period 	2
scalar Network400.node160 	number_of_messages 	61
scalar Network400.node160 	discovery_latency 	1800
scalar Network400.node160 	number_of_desired_resources 	20
scalar Network400.node160 	query_homogenity_rate 	33.333333333333
scalar Network400.node160 	qrecord_time 	11545.166243445
scalar Network400.node160 	discovery_resolution_rate 	66.666666666667
scalar Network400.node90 	rate_of_requesters 	1
scalar Network400.node90 	number_of_resources 	22000
scalar Network400.node90 	time_period 	3
scalar Network400.node90 	number_of_messages 	41
scalar Network400.node90 	discovery_latency 	1824
scalar Network400.node90 	number_of_desired_resources 	20
scalar Network400.node90 	query_homogenity_rate 	33.333333333333
scalar Network400.node90 	qrecord_time 	11625.778908219
scalar Network400.node90 	discovery_resolution_rate 	66.666666666667
scalar Network400.node50 	rate_of_requesters 	1
scalar Network400.node50 	number_of_resources 	22000
scalar Network400.node50 	time_period 	2
scalar Network400.node50 	number_of_messages 	45
scalar Network400.node50 	discovery_latency 	1812
scalar Network400.node50 	number_of_desired_resources 	20
scalar Network400.node50 	query_homogenity_rate 	33.333333333333
scalar Network400.node50 	qrecord_time 	11722.242761363
scalar Network400.node50 	discovery_resolution_rate 	66.666666666667
scalar Network400.node380 	rate_of_requesters 	1
scalar Network400.node380 	number_of_resources 	22000
scalar Network400.node380 	time_period 	2
scalar Network400.node380 	number_of_messages 	38
scalar Network400.node380 	discovery_latency 	1740
scalar Network400.node380 	number_of_desired_resources 	20
scalar Network400.node380 	query_homogenity_rate 	33.333333333333
scalar Network400.node380 	qrecord_time 	11780.575833817
scalar Network400.node380 	discovery_resolution_rate 	66.666666666667
scalar Network400.node220 	rate_of_requesters 	1
scalar Network400.node220 	number_of_resources 	22000
scalar Network400.node220 	time_period 	2
scalar Network400.node220 	number_of_messages 	18
scalar Network400.node220 	discovery_latency 	1896
scalar Network400.node220 	number_of_desired_resources 	20
scalar Network400.node220 	query_homogenity_rate 	33.333333333333
scalar Network400.node220 	qrecord_time 	12043.745396718
scalar Network400.node220 	discovery_resolution_rate 	66.666666666667
scalar Network400.node190 	rate_of_requesters 	1
scalar Network400.node190 	number_of_resources 	22000
scalar Network400.node190 	time_period 	3
scalar Network400.node190 	number_of_messages 	26
scalar Network400.node190 	discovery_latency 	1896
scalar Network400.node190 	number_of_desired_resources 	20
scalar Network400.node190 	query_homogenity_rate 	33.333333333333
scalar Network400.node190 	qrecord_time 	12172.402750979
scalar Network400.node190 	discovery_resolution_rate 	66.666666666667
scalar Network400.node300 	rate_of_requesters 	1
scalar Network400.node300 	number_of_resources 	22000
scalar Network400.node300 	time_period 	3
scalar Network400.node300 	number_of_messages 	11
scalar Network400.node300 	discovery_latency 	2064
scalar Network400.node300 	number_of_desired_resources 	20
scalar Network400.node300 	query_homogenity_rate 	33.333333333333
scalar Network400.node300 	qrecord_time 	12339.714586892
scalar Network400.node300 	discovery_resolution_rate 	33.333333333333
scalar Network400.node40 	rate_of_requesters 	1
scalar Network400.node40 	number_of_resources 	22000
scalar Network400.node40 	time_period 	3
scalar Network400.node40 	number_of_messages 	24
scalar Network400.node40 	discovery_latency 	2112
scalar Network400.node40 	number_of_desired_resources 	20
scalar Network400.node40 	query_homogenity_rate 	33.333333333333
scalar Network400.node40 	qrecord_time 	12372.111363303
scalar Network400.node40 	discovery_resolution_rate 	33.333333333333
scalar Network400.node100 	rate_of_requesters 	1
scalar Network400.node100 	number_of_resources 	22000
scalar Network400.node100 	time_period 	2
scalar Network400.node100 	number_of_messages 	114
scalar Network400.node100 	discovery_latency 	1956
scalar Network400.node100 	number_of_desired_resources 	20
scalar Network400.node100 	query_homogenity_rate 	33.333333333333
scalar Network400.node100 	qrecord_time 	12564.125033053
scalar Network400.node100 	discovery_resolution_rate 	50
scalar Network400.node160 	rate_of_requesters 	1
scalar Network400.node160 	number_of_resources 	22000
scalar Network400.node160 	time_period 	3
scalar Network400.node160 	number_of_messages 	22
scalar Network400.node160 	discovery_latency 	1908
scalar Network400.node160 	number_of_desired_resources 	20
scalar Network400.node160 	query_homogenity_rate 	33.333333333333
scalar Network400.node160 	qrecord_time 	12590.57990922
scalar Network400.node160 	discovery_resolution_rate 	66.666666666667
scalar Network400.node200 	rate_of_requesters 	1
scalar Network400.node200 	number_of_resources 	22000
scalar Network400.node200 	time_period 	2
scalar Network400.node200 	number_of_messages 	9
scalar Network400.node200 	discovery_latency 	1992
scalar Network400.node200 	number_of_desired_resources 	20
scalar Network400.node200 	query_homogenity_rate 	33.333333333333
scalar Network400.node200 	qrecord_time 	12595.702414908
scalar Network400.node200 	discovery_resolution_rate 	33.333333333333
scalar Network400.node390 	rate_of_requesters 	1
scalar Network400.node390 	number_of_resources 	22000
scalar Network400.node390 	time_period 	2
scalar Network400.node390 	number_of_messages 	10
scalar Network400.node390 	discovery_latency 	2076
scalar Network400.node390 	number_of_desired_resources 	20
scalar Network400.node390 	query_homogenity_rate 	33.333333333333
scalar Network400.node390 	qrecord_time 	12805.529057846
scalar Network400.node390 	discovery_resolution_rate 	33.333333333333
scalar Network400.node370 	rate_of_requesters 	1
scalar Network400.node370 	number_of_resources 	22000
scalar Network400.node370 	time_period 	3
scalar Network400.node370 	number_of_messages 	4
scalar Network400.node370 	discovery_latency 	2004
scalar Network400.node370 	number_of_desired_resources 	20
scalar Network400.node370 	query_homogenity_rate 	33.333333333333
scalar Network400.node370 	qrecord_time 	12839.785382662
scalar Network400.node370 	discovery_resolution_rate 	33.333333333333
scalar Network400.node20 	rate_of_requesters 	1
scalar Network400.node20 	number_of_resources 	22000
scalar Network400.node20 	time_period 	8
scalar Network400.node20 	number_of_messages 	19
scalar Network400.node20 	discovery_latency 	2112
scalar Network400.node20 	number_of_desired_resources 	20
scalar Network400.node20 	query_homogenity_rate 	33.333333333333
scalar Network400.node20 	qrecord_time 	12902.230489549
scalar Network400.node20 	discovery_resolution_rate 	33.333333333333
scalar Network400.node250 	rate_of_requesters 	1
scalar Network400.node250 	number_of_resources 	22000
scalar Network400.node250 	time_period 	3
scalar Network400.node250 	number_of_messages 	13
scalar Network400.node250 	discovery_latency 	2088
scalar Network400.node250 	number_of_desired_resources 	20
scalar Network400.node250 	query_homogenity_rate 	33.333333333333
scalar Network400.node250 	qrecord_time 	13134.752024725
scalar Network400.node250 	discovery_resolution_rate 	33.333333333333
scalar Network400.node310 	rate_of_requesters 	1
scalar Network400.node310 	number_of_resources 	22000
scalar Network400.node310 	time_period 	3
scalar Network400.node310 	number_of_messages 	17
scalar Network400.node310 	discovery_latency 	2112
scalar Network400.node310 	number_of_desired_resources 	20
scalar Network400.node310 	query_homogenity_rate 	33.333333333333
scalar Network400.node310 	qrecord_time 	13354.416564147
scalar Network400.node310 	discovery_resolution_rate 	33.333333333333
scalar Network400.node0 	rate_of_requesters 	1
scalar Network400.node0 	number_of_resources 	22000
scalar Network400.node0 	time_period 	4
scalar Network400.node0 	number_of_messages 	6
scalar Network400.node0 	discovery_latency 	2064
scalar Network400.node0 	number_of_desired_resources 	20
scalar Network400.node0 	query_homogenity_rate 	33.333333333333
scalar Network400.node0 	qrecord_time 	13368.749333635
scalar Network400.node0 	discovery_resolution_rate 	33.333333333333
scalar Network400.node350 	rate_of_requesters 	1
scalar Network400.node350 	number_of_resources 	22000
scalar Network400.node350 	time_period 	3
scalar Network400.node350 	number_of_messages 	12
scalar Network400.node350 	discovery_latency 	2064
scalar Network400.node350 	number_of_desired_resources 	20
scalar Network400.node350 	query_homogenity_rate 	33.333333333333
scalar Network400.node350 	qrecord_time 	13452.135976831
scalar Network400.node350 	discovery_resolution_rate 	33.333333333333
scalar Network400.node140 	rate_of_requesters 	1
scalar Network400.node140 	number_of_resources 	22000
scalar Network400.node140 	time_period 	2
scalar Network400.node140 	number_of_messages 	17
scalar Network400.node140 	discovery_latency 	2016
scalar Network400.node140 	number_of_desired_resources 	20
scalar Network400.node140 	query_homogenity_rate 	33.333333333333
scalar Network400.node140 	qrecord_time 	13459.200877634
scalar Network400.node140 	discovery_resolution_rate 	33.333333333333
scalar Network400.node180 	rate_of_requesters 	1
scalar Network400.node180 	number_of_resources 	22000
scalar Network400.node180 	time_period 	3
scalar Network400.node180 	number_of_messages 	31
scalar Network400.node180 	discovery_latency 	2028
scalar Network400.node180 	number_of_desired_resources 	20
scalar Network400.node180 	query_homogenity_rate 	33.333333333333
scalar Network400.node180 	qrecord_time 	13563.23195322
scalar Network400.node180 	discovery_resolution_rate 	33.333333333333
scalar Network400.node130 	rate_of_requesters 	1
scalar Network400.node130 	number_of_resources 	22000
scalar Network400.node130 	time_period 	3
scalar Network400.node130 	number_of_messages 	74
scalar Network400.node130 	discovery_latency 	2004
scalar Network400.node130 	number_of_desired_resources 	20
scalar Network400.node130 	query_homogenity_rate 	33.333333333333
scalar Network400.node130 	qrecord_time 	13592.058375578
scalar Network400.node130 	discovery_resolution_rate 	33.333333333333
scalar Network400.node190 	rate_of_requesters 	1
scalar Network400.node190 	number_of_resources 	22000
scalar Network400.node190 	time_period 	4
scalar Network400.node190 	number_of_messages 	8
scalar Network400.node190 	discovery_latency 	2124
scalar Network400.node190 	number_of_desired_resources 	20
scalar Network400.node190 	query_homogenity_rate 	33.333333333333
scalar Network400.node190 	qrecord_time 	13641.187350804
scalar Network400.node190 	discovery_resolution_rate 	33.333333333333
scalar Network400.node40 	rate_of_requesters 	1
scalar Network400.node40 	number_of_resources 	22000
scalar Network400.node40 	time_period 	4
scalar Network400.node40 	number_of_messages 	15
scalar Network400.node40 	discovery_latency 	2028
scalar Network400.node40 	number_of_desired_resources 	20
scalar Network400.node40 	query_homogenity_rate 	33.333333333333
scalar Network400.node40 	qrecord_time 	13713.370020544
scalar Network400.node40 	discovery_resolution_rate 	33.333333333333
scalar Network400.node230 	rate_of_requesters 	1
scalar Network400.node230 	number_of_resources 	22000
scalar Network400.node230 	time_period 	3
scalar Network400.node230 	number_of_messages 	48
scalar Network400.node230 	discovery_latency 	2112
scalar Network400.node230 	number_of_desired_resources 	20
scalar Network400.node230 	query_homogenity_rate 	33.333333333333
scalar Network400.node230 	qrecord_time 	13734.63502076
scalar Network400.node230 	discovery_resolution_rate 	33.333333333333
scalar Network400.node240 	rate_of_requesters 	1
scalar Network400.node240 	number_of_resources 	22000
scalar Network400.node240 	time_period 	3
scalar Network400.node240 	number_of_messages 	13
scalar Network400.node240 	discovery_latency 	2028
scalar Network400.node240 	number_of_desired_resources 	20
scalar Network400.node240 	query_homogenity_rate 	33.333333333333
scalar Network400.node240 	qrecord_time 	13824.988878546
scalar Network400.node240 	discovery_resolution_rate 	33.333333333333
scalar Network400.node160 	rate_of_requesters 	1
scalar Network400.node160 	number_of_resources 	22000
scalar Network400.node160 	time_period 	4
scalar Network400.node160 	number_of_messages 	29
scalar Network400.node160 	discovery_latency 	2052
scalar Network400.node160 	number_of_desired_resources 	20
scalar Network400.node160 	query_homogenity_rate 	33.333333333333
scalar Network400.node160 	qrecord_time 	13878.8478807
scalar Network400.node160 	discovery_resolution_rate 	33.333333333333
scalar Network400.node330 	rate_of_requesters 	1
scalar Network400.node330 	number_of_resources 	22000
scalar Network400.node330 	time_period 	3
scalar Network400.node330 	number_of_messages 	74
scalar Network400.node330 	discovery_latency 	1872
scalar Network400.node330 	number_of_desired_resources 	20
scalar Network400.node330 	query_homogenity_rate 	33.333333333333
scalar Network400.node330 	qrecord_time 	13883.181509945
scalar Network400.node330 	discovery_resolution_rate 	66.666666666667
scalar Network400.node230 	rate_of_requesters 	1
scalar Network400.node230 	number_of_resources 	22000
scalar Network400.node230 	time_period 	4
scalar Network400.node230 	number_of_messages 	15
scalar Network400.node230 	discovery_latency 	2076
scalar Network400.node230 	number_of_desired_resources 	20
scalar Network400.node230 	query_homogenity_rate 	33.333333333333
scalar Network400.node230 	qrecord_time 	13999.129044839
scalar Network400.node230 	discovery_resolution_rate 	33.333333333333
scalar Network400.node120 	rate_of_requesters 	1
scalar Network400.node120 	number_of_resources 	22000
scalar Network400.node120 	time_period 	3
scalar Network400.node120 	number_of_messages 	10
scalar Network400.node120 	discovery_latency 	2076
scalar Network400.node120 	number_of_desired_resources 	20
scalar Network400.node120 	query_homogenity_rate 	33.333333333333
scalar Network400.node120 	qrecord_time 	14002.374241906
scalar Network400.node120 	discovery_resolution_rate 	33.333333333333
scalar Network400.node330 	rate_of_requesters 	1
scalar Network400.node330 	number_of_resources 	22000
scalar Network400.node330 	time_period 	4
scalar Network400.node330 	number_of_messages 	30
scalar Network400.node330 	discovery_latency 	1860
scalar Network400.node330 	number_of_desired_resources 	20
scalar Network400.node330 	query_homogenity_rate 	33.333333333333
scalar Network400.node330 	qrecord_time 	14313.756429523
scalar Network400.node330 	discovery_resolution_rate 	66.666666666667
scalar Network400.node10 	rate_of_requesters 	1
scalar Network400.node10 	number_of_resources 	22000
scalar Network400.node10 	time_period 	4
scalar Network400.node10 	number_of_messages 	18
scalar Network400.node10 	discovery_latency 	2028
scalar Network400.node10 	number_of_desired_resources 	20
scalar Network400.node10 	query_homogenity_rate 	33.333333333333
scalar Network400.node10 	qrecord_time 	14394.026800674
scalar Network400.node10 	discovery_resolution_rate 	33.333333333333
scalar Network400.node10 	rate_of_requesters 	1
scalar Network400.node10 	number_of_resources 	22000
scalar Network400.node10 	time_period 	5
scalar Network400.node10 	number_of_messages 	23
scalar Network400.node10 	discovery_latency 	2028
scalar Network400.node10 	number_of_desired_resources 	20
scalar Network400.node10 	query_homogenity_rate 	33.333333333333
scalar Network400.node10 	qrecord_time 	14403.602250084
scalar Network400.node10 	discovery_resolution_rate 	33.333333333333
scalar Network400.node310 	rate_of_requesters 	1
scalar Network400.node310 	number_of_resources 	22000
scalar Network400.node310 	time_period 	4
scalar Network400.node310 	number_of_messages 	12
scalar Network400.node310 	discovery_latency 	1956
scalar Network400.node310 	number_of_desired_resources 	20
scalar Network400.node310 	query_homogenity_rate 	33.333333333333
scalar Network400.node310 	qrecord_time 	14565.936823448
scalar Network400.node310 	discovery_resolution_rate 	33.333333333333
scalar Network400.node370 	rate_of_requesters 	1
scalar Network400.node370 	number_of_resources 	22000
scalar Network400.node370 	time_period 	4
scalar Network400.node370 	number_of_messages 	33
scalar Network400.node370 	discovery_latency 	1896
scalar Network400.node370 	number_of_desired_resources 	20
scalar Network400.node370 	query_homogenity_rate 	33.333333333333
scalar Network400.node370 	qrecord_time 	14775.095730645
scalar Network400.node370 	discovery_resolution_rate 	66.666666666667
scalar Network400.node340 	rate_of_requesters 	1
scalar Network400.node340 	number_of_resources 	22000
scalar Network400.node340 	time_period 	3
scalar Network400.node340 	number_of_messages 	21
scalar Network400.node340 	discovery_latency 	1884
scalar Network400.node340 	number_of_desired_resources 	20
scalar Network400.node340 	query_homogenity_rate 	33.333333333333
scalar Network400.node340 	qrecord_time 	14947.429504855
scalar Network400.node340 	discovery_resolution_rate 	66.666666666667
scalar Network400.node10 	rate_of_requesters 	1
scalar Network400.node10 	number_of_resources 	22000
scalar Network400.node10 	time_period 	6
scalar Network400.node10 	number_of_messages 	39
scalar Network400.node10 	discovery_latency 	1980
scalar Network400.node10 	number_of_desired_resources 	20
scalar Network400.node10 	query_homogenity_rate 	33.333333333333
scalar Network400.node10 	qrecord_time 	15176.491988809
scalar Network400.node10 	discovery_resolution_rate 	33.333333333333
scalar Network400.node100 	rate_of_requesters 	1
scalar Network400.node100 	number_of_resources 	22000
scalar Network400.node100 	time_period 	3
scalar Network400.node100 	number_of_messages 	6
scalar Network400.node100 	discovery_latency 	2004
scalar Network400.node100 	number_of_desired_resources 	20
scalar Network400.node100 	query_homogenity_rate 	33.333333333333
scalar Network400.node100 	qrecord_time 	15276.41641704
scalar Network400.node100 	discovery_resolution_rate 	33.333333333333
scalar Network400.node140 	rate_of_requesters 	1
scalar Network400.node140 	number_of_resources 	22000
scalar Network400.node140 	time_period 	3
scalar Network400.node140 	number_of_messages 	27
scalar Network400.node140 	discovery_latency 	2100
scalar Network400.node140 	number_of_desired_resources 	20
scalar Network400.node140 	query_homogenity_rate 	33.333333333333
scalar Network400.node140 	qrecord_time 	15341.895572605
scalar Network400.node140 	discovery_resolution_rate 	33.333333333333
scalar Network400.node250 	rate_of_requesters 	1
scalar Network400.node250 	number_of_resources 	22000
scalar Network400.node250 	time_period 	4
scalar Network400.node250 	number_of_messages 	7
scalar Network400.node250 	discovery_latency 	2004
scalar Network400.node250 	number_of_desired_resources 	20
scalar Network400.node250 	query_homogenity_rate 	33.333333333333
scalar Network400.node250 	qrecord_time 	15423.446689692
scalar Network400.node250 	discovery_resolution_rate 	33.333333333333
scalar Network400.node40 	rate_of_requesters 	1
scalar Network400.node40 	number_of_resources 	22000
scalar Network400.node40 	time_period 	5
scalar Network400.node40 	number_of_messages 	117
scalar Network400.node40 	discovery_latency 	2136
scalar Network400.node40 	number_of_desired_resources 	20
scalar Network400.node40 	query_homogenity_rate 	33.333333333333
scalar Network400.node40 	qrecord_time 	15649.596602638
scalar Network400.node40 	discovery_resolution_rate 	50
scalar Network400.node170 	rate_of_requesters 	1
scalar Network400.node170 	number_of_resources 	22000
scalar Network400.node170 	time_period 	3
scalar Network400.node170 	number_of_messages 	27
scalar Network400.node170 	discovery_latency 	2112
scalar Network400.node170 	number_of_desired_resources 	20
scalar Network400.node170 	query_homogenity_rate 	33.333333333333
scalar Network400.node170 	qrecord_time 	15664.090077564
scalar Network400.node170 	discovery_resolution_rate 	33.333333333333
scalar Network400.node390 	rate_of_requesters 	1
scalar Network400.node390 	number_of_resources 	22000
scalar Network400.node390 	time_period 	3
scalar Network400.node390 	number_of_messages 	31
scalar Network400.node390 	discovery_latency 	2064
scalar Network400.node390 	number_of_desired_resources 	20
scalar Network400.node390 	query_homogenity_rate 	33.333333333333
scalar Network400.node390 	qrecord_time 	15698.620060061
scalar Network400.node390 	discovery_resolution_rate 	33.333333333333
scalar Network400.node100 	rate_of_requesters 	1
scalar Network400.node100 	number_of_resources 	22000
scalar Network400.node100 	time_period 	4
scalar Network400.node100 	number_of_messages 	34
scalar Network400.node100 	discovery_latency 	1992
scalar Network400.node100 	number_of_desired_resources 	20
scalar Network400.node100 	query_homogenity_rate 	33.333333333333
scalar Network400.node100 	qrecord_time 	15758.68150074
scalar Network400.node100 	discovery_resolution_rate 	33.333333333333
scalar Network400.node210 	rate_of_requesters 	1
scalar Network400.node210 	number_of_resources 	22000
scalar Network400.node210 	time_period 	4
scalar Network400.node210 	number_of_messages 	22
scalar Network400.node210 	discovery_latency 	1860
scalar Network400.node210 	number_of_desired_resources 	20
scalar Network400.node210 	query_homogenity_rate 	33.333333333333
scalar Network400.node210 	qrecord_time 	15968.595129723
scalar Network400.node210 	discovery_resolution_rate 	66.666666666667
scalar Network400.node280 	rate_of_requesters 	1
scalar Network400.node280 	number_of_resources 	22000
scalar Network400.node280 	time_period 	5
scalar Network400.node280 	number_of_messages 	49
scalar Network400.node280 	discovery_latency 	1848
scalar Network400.node280 	number_of_desired_resources 	20
scalar Network400.node280 	query_homogenity_rate 	33.333333333333
scalar Network400.node280 	qrecord_time 	16137.369200129
scalar Network400.node280 	discovery_resolution_rate 	66.666666666667
scalar Network400.node160 	rate_of_requesters 	1
scalar Network400.node160 	number_of_resources 	22000
scalar Network400.node160 	time_period 	5
scalar Network400.node160 	number_of_messages 	32
scalar Network400.node160 	discovery_latency 	1812
scalar Network400.node160 	number_of_desired_resources 	20
scalar Network400.node160 	query_homogenity_rate 	33.333333333333
scalar Network400.node160 	qrecord_time 	16143.905915426
scalar Network400.node160 	discovery_resolution_rate 	66.666666666667
scalar Network400.node60 	rate_of_requesters 	1
scalar Network400.node60 	number_of_resources 	22000
scalar Network400.node60 	time_period 	3
scalar Network400.node60 	number_of_messages 	31
scalar Network400.node60 	discovery_latency 	2076
scalar Network400.node60 	number_of_desired_resources 	20
scalar Network400.node60 	query_homogenity_rate 	33.333333333333
scalar Network400.node60 	qrecord_time 	16332.626345061
scalar Network400.node60 	discovery_resolution_rate 	33.333333333333
scalar Network400.node250 	rate_of_requesters 	1
scalar Network400.node250 	number_of_resources 	22000
scalar Network400.node250 	time_period 	5
scalar Network400.node250 	number_of_messages 	34
scalar Network400.node250 	discovery_latency 	2064
scalar Network400.node250 	number_of_desired_resources 	20
scalar Network400.node250 	query_homogenity_rate 	33.333333333333
scalar Network400.node250 	qrecord_time 	16691.040262982
scalar Network400.node250 	discovery_resolution_rate 	33.333333333333
scalar Network400.node150 	rate_of_requesters 	1
scalar Network400.node150 	number_of_resources 	22000
scalar Network400.node150 	time_period 	6
scalar Network400.node150 	number_of_messages 	4
scalar Network400.node150 	discovery_latency 	2028
scalar Network400.node150 	number_of_desired_resources 	20
scalar Network400.node150 	query_homogenity_rate 	33.333333333333
scalar Network400.node150 	qrecord_time 	16782.503849157
scalar Network400.node150 	discovery_resolution_rate 	33.333333333333
scalar Network400.node290 	rate_of_requesters 	1
scalar Network400.node290 	number_of_resources 	22000
scalar Network400.node290 	time_period 	4
scalar Network400.node290 	number_of_messages 	59
scalar Network400.node290 	discovery_latency 	1860
scalar Network400.node290 	number_of_desired_resources 	20
scalar Network400.node290 	query_homogenity_rate 	33.333333333333
scalar Network400.node290 	qrecord_time 	16857.331057954
scalar Network400.node290 	discovery_resolution_rate 	66.666666666667
scalar Network400.node340 	rate_of_requesters 	1
scalar Network400.node340 	number_of_resources 	22000
scalar Network400.node340 	time_period 	4
scalar Network400.node340 	number_of_messages 	32
scalar Network400.node340 	discovery_latency 	1992
scalar Network400.node340 	number_of_desired_resources 	20
scalar Network400.node340 	query_homogenity_rate 	33.333333333333
scalar Network400.node340 	qrecord_time 	16878.197700629
scalar Network400.node340 	discovery_resolution_rate 	33.333333333333
scalar Network400.node370 	rate_of_requesters 	1
scalar Network400.node370 	number_of_resources 	22000
scalar Network400.node370 	time_period 	5
scalar Network400.node370 	number_of_messages 	10
scalar Network400.node370 	discovery_latency 	1980
scalar Network400.node370 	number_of_desired_resources 	20
scalar Network400.node370 	query_homogenity_rate 	33.333333333333
scalar Network400.node370 	qrecord_time 	16936.089549171
scalar Network400.node370 	discovery_resolution_rate 	33.333333333333
scalar Network400.node360 	rate_of_requesters 	1
scalar Network400.node360 	number_of_resources 	22000
scalar Network400.node360 	time_period 	2
scalar Network400.node360 	number_of_messages 	6
scalar Network400.node360 	discovery_latency 	2052
scalar Network400.node360 	number_of_desired_resources 	20
scalar Network400.node360 	query_homogenity_rate 	33.333333333333
scalar Network400.node360 	qrecord_time 	17020.820877522
scalar Network400.node360 	discovery_resolution_rate 	33.333333333333
scalar Network400.node140 	rate_of_requesters 	1
scalar Network400.node140 	number_of_resources 	22000
scalar Network400.node140 	time_period 	4
scalar Network400.node140 	number_of_messages 	17
scalar Network400.node140 	discovery_latency 	1992
scalar Network400.node140 	number_of_desired_resources 	20
scalar Network400.node140 	query_homogenity_rate 	33.333333333333
scalar Network400.node140 	qrecord_time 	17079.215030071
scalar Network400.node140 	discovery_resolution_rate 	33.333333333333
scalar Network400.node140 	rate_of_requesters 	1
scalar Network400.node140 	number_of_resources 	22000
scalar Network400.node140 	time_period 	5
scalar Network400.node140 	number_of_messages 	21
scalar Network400.node140 	discovery_latency 	1956
scalar Network400.node140 	number_of_desired_resources 	20
scalar Network400.node140 	query_homogenity_rate 	33.333333333333
scalar Network400.node140 	qrecord_time 	17080.266392058
scalar Network400.node140 	discovery_resolution_rate 	33.333333333333
scalar Network400.node180 	rate_of_requesters 	1
scalar Network400.node180 	number_of_resources 	22000
scalar Network400.node180 	time_period 	4
scalar Network400.node180 	number_of_messages 	29
scalar Network400.node180 	discovery_latency 	2076
scalar Network400.node180 	number_of_desired_resources 	20
scalar Network400.node180 	query_homogenity_rate 	33.333333333333
scalar Network400.node180 	qrecord_time 	17141.51954852
scalar Network400.node180 	discovery_resolution_rate 	33.333333333333
scalar Network400.node20 	rate_of_requesters 	1
scalar Network400.node20 	number_of_resources 	22000
scalar Network400.node20 	time_period 	9
scalar Network400.node20 	number_of_messages 	27
scalar Network400.node20 	discovery_latency 	1980
scalar Network400.node20 	number_of_desired_resources 	20
scalar Network400.node20 	query_homogenity_rate 	33.333333333333
scalar Network400.node20 	qrecord_time 	17277.077985001
scalar Network400.node20 	discovery_resolution_rate 	33.333333333333
scalar Network400.node320 	rate_of_requesters 	1
scalar Network400.node320 	number_of_resources 	22000
scalar Network400.node320 	time_period 	3
scalar Network400.node320 	number_of_messages 	46
scalar Network400.node320 	discovery_latency 	1968
scalar Network400.node320 	number_of_desired_resources 	20
scalar Network400.node320 	query_homogenity_rate 	33.333333333333
scalar Network400.node320 	qrecord_time 	17333.284589344
scalar Network400.node320 	discovery_resolution_rate 	33.333333333333
scalar Network400.node40 	rate_of_requesters 	1
scalar Network400.node40 	number_of_resources 	22000
scalar Network400.node40 	time_period 	6
scalar Network400.node40 	number_of_messages 	26
scalar Network400.node40 	discovery_latency 	1980
scalar Network400.node40 	number_of_desired_resources 	20
scalar Network400.node40 	query_homogenity_rate 	33.333333333333
scalar Network400.node40 	qrecord_time 	17372.767155481
scalar Network400.node40 	discovery_resolution_rate 	33.333333333333
scalar Network400.node180 	rate_of_requesters 	1
scalar Network400.node180 	number_of_resources 	22000
scalar Network400.node180 	time_period 	5
scalar Network400.node180 	number_of_messages 	29
scalar Network400.node180 	discovery_latency 	2040
scalar Network400.node180 	number_of_desired_resources 	20
scalar Network400.node180 	query_homogenity_rate 	33.333333333333
scalar Network400.node180 	qrecord_time 	17723.045573031
scalar Network400.node180 	discovery_resolution_rate 	33.333333333333
scalar Network400.node180 	rate_of_requesters 	1
scalar Network400.node180 	number_of_resources 	22000
scalar Network400.node180 	time_period 	6
scalar Network400.node180 	number_of_messages 	31
scalar Network400.node180 	discovery_latency 	2028
scalar Network400.node180 	number_of_desired_resources 	20
scalar Network400.node180 	query_homogenity_rate 	33.333333333333
scalar Network400.node180 	qrecord_time 	17794.354565693
scalar Network400.node180 	discovery_resolution_rate 	33.333333333333
scalar Network400.node160 	rate_of_requesters 	1
scalar Network400.node160 	number_of_resources 	22000
scalar Network400.node160 	time_period 	6
scalar Network400.node160 	number_of_messages 	119
scalar Network400.node160 	discovery_latency 	1980
scalar Network400.node160 	number_of_desired_resources 	20
scalar Network400.node160 	query_homogenity_rate 	33.333333333333
scalar Network400.node160 	qrecord_time 	17801.554319377
scalar Network400.node160 	discovery_resolution_rate 	50
scalar Network400.node90 	rate_of_requesters 	1
scalar Network400.node90 	number_of_resources 	22000
scalar Network400.node90 	time_period 	4
scalar Network400.node90 	number_of_messages 	20
scalar Network400.node90 	discovery_latency 	1932
scalar Network400.node90 	number_of_desired_resources 	20
scalar Network400.node90 	query_homogenity_rate 	33.333333333333
scalar Network400.node90 	qrecord_time 	17812.046278094
scalar Network400.node90 	discovery_resolution_rate 	33.333333333333
scalar Network400.node30 	rate_of_requesters 	1
scalar Network400.node30 	number_of_resources 	22000
scalar Network400.node30 	time_period 	3
scalar Network400.node30 	number_of_messages 	36
scalar Network400.node30 	discovery_latency 	1944
scalar Network400.node30 	number_of_desired_resources 	20
scalar Network400.node30 	query_homogenity_rate 	33.333333333333
scalar Network400.node30 	qrecord_time 	17840.716782748
scalar Network400.node30 	discovery_resolution_rate 	33.333333333333
scalar Network400.node120 	rate_of_requesters 	1
scalar Network400.node120 	number_of_resources 	22000
scalar Network400.node120 	time_period 	6
scalar Network400.node120 	number_of_messages 	61
scalar Network400.node120 	discovery_latency 	1776
scalar Network400.node120 	number_of_desired_resources 	20
scalar Network400.node120 	query_homogenity_rate 	33.333333333333
scalar Network400.node120 	qrecord_time 	17853.91265283
scalar Network400.node120 	discovery_resolution_rate 	66.666666666667
scalar Network400.node370 	rate_of_requesters 	1
scalar Network400.node370 	number_of_resources 	22000
scalar Network400.node370 	time_period 	6
scalar Network400.node370 	number_of_messages 	27
scalar Network400.node370 	discovery_latency 	2040
scalar Network400.node370 	number_of_desired_resources 	20
scalar Network400.node370 	query_homogenity_rate 	33.333333333333
scalar Network400.node370 	qrecord_time 	17927.518762837
scalar Network400.node370 	discovery_resolution_rate 	33.333333333333
scalar Network400.node120 	rate_of_requesters 	1
scalar Network400.node120 	number_of_resources 	22000
scalar Network400.node120 	time_period 	4
scalar Network400.node120 	number_of_messages 	71
scalar Network400.node120 	discovery_latency 	2040
scalar Network400.node120 	number_of_desired_resources 	20
scalar Network400.node120 	query_homogenity_rate 	33.333333333333
scalar Network400.node120 	qrecord_time 	17959.158495207
scalar Network400.node120 	discovery_resolution_rate 	33.333333333333
scalar Network400.node80 	rate_of_requesters 	1
scalar Network400.node80 	number_of_resources 	22000
scalar Network400.node80 	time_period 	3
scalar Network400.node80 	number_of_messages 	36
scalar Network400.node80 	discovery_latency 	1956
scalar Network400.node80 	number_of_desired_resources 	20
scalar Network400.node80 	query_homogenity_rate 	33.333333333333
scalar Network400.node80 	qrecord_time 	17982.610029133
scalar Network400.node80 	discovery_resolution_rate 	33.333333333333
scalar Network400.node120 	rate_of_requesters 	1
scalar Network400.node120 	number_of_resources 	22000
scalar Network400.node120 	time_period 	5
scalar Network400.node120 	number_of_messages 	57
scalar Network400.node120 	discovery_latency 	2004
scalar Network400.node120 	number_of_desired_resources 	20
scalar Network400.node120 	query_homogenity_rate 	33.333333333333
scalar Network400.node120 	qrecord_time 	18036.300299106
scalar Network400.node120 	discovery_resolution_rate 	33.333333333333
scalar Network400.node380 	rate_of_requesters 	1
scalar Network400.node380 	number_of_resources 	22000
scalar Network400.node380 	time_period 	3
scalar Network400.node380 	number_of_messages 	53
scalar Network400.node380 	discovery_latency 	1980
scalar Network400.node380 	number_of_desired_resources 	20
scalar Network400.node380 	query_homogenity_rate 	33.333333333333
scalar Network400.node380 	qrecord_time 	18204.964284884
scalar Network400.node380 	discovery_resolution_rate 	33.333333333333
scalar Network400.node20 	rate_of_requesters 	1
scalar Network400.node20 	number_of_resources 	22000
scalar Network400.node20 	time_period 	10
scalar Network400.node20 	number_of_messages 	37
scalar Network400.node20 	discovery_latency 	2016
scalar Network400.node20 	number_of_desired_resources 	20
scalar Network400.node20 	query_homogenity_rate 	33.333333333333
scalar Network400.node20 	qrecord_time 	18209.286652755
scalar Network400.node20 	discovery_resolution_rate 	33.333333333333
scalar Network400.node390 	rate_of_requesters 	1
scalar Network400.node390 	number_of_resources 	22000
scalar Network400.node390 	time_period 	4
scalar Network400.node390 	number_of_messages 	61
scalar Network400.node390 	discovery_latency 	2016
scalar Network400.node390 	number_of_desired_resources 	20
scalar Network400.node390 	query_homogenity_rate 	33.333333333333
scalar Network400.node390 	qrecord_time 	18236.109377566
scalar Network400.node390 	discovery_resolution_rate 	33.333333333333
scalar Network400.node210 	rate_of_requesters 	1
scalar Network400.node210 	number_of_resources 	22000
scalar Network400.node210 	time_period 	5
scalar Network400.node210 	number_of_messages 	47
scalar Network400.node210 	discovery_latency 	1968
scalar Network400.node210 	number_of_desired_resources 	20
scalar Network400.node210 	query_homogenity_rate 	33.333333333333
scalar Network400.node210 	qrecord_time 	18283.502640533
scalar Network400.node210 	discovery_resolution_rate 	33.333333333333
scalar Network400.node90 	rate_of_requesters 	1
scalar Network400.node90 	number_of_resources 	22000
scalar Network400.node90 	time_period 	5
scalar Network400.node90 	number_of_messages 	85
scalar Network400.node90 	discovery_latency 	1788
scalar Network400.node90 	number_of_desired_resources 	20
[...]
scalar Network400.node390 	qrecord_time 	44692.225829557
scalar Network400.node390 	discovery_resolution_rate 	66.666666666667
scalar Network400.node320 	rate_of_requesters 	1
scalar Network400.node320 	number_of_resources 	22000
scalar Network400.node320 	time_period 	5
scalar Network400.node320 	number_of_messages 	14
scalar Network400.node320 	discovery_latency 	1860
scalar Network400.node320 	number_of_desired_resources 	20
scalar Network400.node320 	query_homogenity_rate 	33.333333333333
scalar Network400.node320 	qrecord_time 	44773.542912212
scalar Network400.node320 	discovery_resolution_rate 	66.666666666667
scalar Network400.node260 	rate_of_requesters 	1
scalar Network400.node260 	number_of_resources 	22000
scalar Network400.node260 	time_period 	7
scalar Network400.node260 	number_of_messages 	10
scalar Network400.node260 	discovery_latency 	1908
scalar Network400.node260 	number_of_desired_resources 	20
scalar Network400.node260 	query_homogenity_rate 	33.333333333333
scalar Network400.node260 	qrecord_time 	45008.230462074
scalar Network400.node260 	discovery_resolution_rate 	66.666666666667
scalar Network400.node260 	rate_of_requesters 	1
scalar Network400.node260 	number_of_resources 	22000
scalar Network400.node260 	time_period 	8
scalar Network400.node260 	number_of_messages 	11
scalar Network400.node260 	discovery_latency 	1908
scalar Network400.node260 	number_of_desired_resources 	20
scalar Network400.node260 	query_homogenity_rate 	33.333333333333
scalar Network400.node260 	qrecord_time 	45140.82822084
scalar Network400.node260 	discovery_resolution_rate 	66.666666666667
scalar Network400.node0 	rate_of_requesters 	1
scalar Network400.node0 	number_of_resources 	22000
scalar Network400.node0 	time_period 	9
scalar Network400.node0 	number_of_messages 	26
scalar Network400.node0 	discovery_latency 	1932
scalar Network400.node0 	number_of_desired_resources 	20
scalar Network400.node0 	query_homogenity_rate 	33.333333333333
scalar Network400.node0 	qrecord_time 	45342.501570911
scalar Network400.node0 	discovery_resolution_rate 	66.666666666667
scalar Network400.node330 	rate_of_requesters 	1
scalar Network400.node330 	number_of_resources 	22000
scalar Network400.node330 	time_period 	9
scalar Network400.node330 	number_of_messages 	12
scalar Network400.node330 	discovery_latency 	1824
scalar Network400.node330 	number_of_desired_resources 	20
scalar Network400.node330 	query_homogenity_rate 	33.333333333333
scalar Network400.node330 	qrecord_time 	45643.051772064
scalar Network400.node330 	discovery_resolution_rate 	66.666666666667
scalar Network400.node130 	rate_of_requesters 	1
scalar Network400.node130 	number_of_resources 	22000
scalar Network400.node130 	time_period 	10
scalar Network400.node130 	number_of_messages 	17
scalar Network400.node130 	discovery_latency 	1824
scalar Network400.node130 	number_of_desired_resources 	20
scalar Network400.node130 	query_homogenity_rate 	33.333333333333
scalar Network400.node130 	qrecord_time 	45839.83814756
scalar Network400.node130 	discovery_resolution_rate 	66.666666666667
scalar Network400.node0 	rate_of_requesters 	1
scalar Network400.node0 	number_of_resources 	22000
scalar Network400.node0 	time_period 	10
scalar Network400.node0 	number_of_messages 	20
scalar Network400.node0 	discovery_latency 	1908
scalar Network400.node0 	number_of_desired_resources 	20
scalar Network400.node0 	query_homogenity_rate 	33.333333333333
scalar Network400.node0 	qrecord_time 	46171.154950104
scalar Network400.node0 	discovery_resolution_rate 	66.666666666667
scalar Network400.node390 	rate_of_requesters 	1
scalar Network400.node390 	number_of_resources 	22000
scalar Network400.node390 	time_period 	10
scalar Network400.node390 	number_of_messages 	97
scalar Network400.node390 	discovery_latency 	2136
scalar Network400.node390 	number_of_desired_resources 	20
scalar Network400.node390 	query_homogenity_rate 	33.333333333333
scalar Network400.node390 	qrecord_time 	46724.44760293
scalar Network400.node390 	discovery_resolution_rate 	50
scalar Network400.node360 	rate_of_requesters 	1
scalar Network400.node360 	number_of_resources 	22000
scalar Network400.node360 	time_period 	6
scalar Network400.node360 	number_of_messages 	6
scalar Network400.node360 	discovery_latency 	2028
scalar Network400.node360 	number_of_desired_resources 	20
scalar Network400.node360 	query_homogenity_rate 	33.333333333333
scalar Network400.node360 	qrecord_time 	46823.755794844
scalar Network400.node360 	discovery_resolution_rate 	33.333333333333
scalar Network400.node220 	rate_of_requesters 	1
scalar Network400.node220 	number_of_resources 	22000
scalar Network400.node220 	time_period 	10
scalar Network400.node220 	number_of_messages 	17
scalar Network400.node220 	discovery_latency 	1920
scalar Network400.node220 	number_of_desired_resources 	20
scalar Network400.node220 	query_homogenity_rate 	33.333333333333
scalar Network400.node220 	qrecord_time 	47161.344462611
scalar Network400.node220 	discovery_resolution_rate 	66.666666666667
scalar Network400.node30 	rate_of_requesters 	1
scalar Network400.node30 	number_of_resources 	22000
scalar Network400.node30 	time_period 	9
scalar Network400.node30 	number_of_messages 	11
scalar Network400.node30 	discovery_latency 	1836
scalar Network400.node30 	number_of_desired_resources 	20
scalar Network400.node30 	query_homogenity_rate 	33.333333333333
scalar Network400.node30 	qrecord_time 	48014.610230878
scalar Network400.node30 	discovery_resolution_rate 	66.666666666667
scalar Network400.node320 	rate_of_requesters 	1
scalar Network400.node320 	number_of_resources 	22000
scalar Network400.node320 	time_period 	6
scalar Network400.node320 	number_of_messages 	14
scalar Network400.node320 	discovery_latency 	1908
scalar Network400.node320 	number_of_desired_resources 	20
scalar Network400.node320 	query_homogenity_rate 	33.333333333333
scalar Network400.node320 	qrecord_time 	48238.790652194
scalar Network400.node320 	discovery_resolution_rate 	66.666666666667
scalar Network400.node230 	rate_of_requesters 	1
scalar Network400.node230 	number_of_resources 	22000
scalar Network400.node230 	time_period 	6
scalar Network400.node230 	number_of_messages 	18
scalar Network400.node230 	discovery_latency 	1848
scalar Network400.node230 	number_of_desired_resources 	20
scalar Network400.node230 	query_homogenity_rate 	33.333333333333
scalar Network400.node230 	qrecord_time 	48383.808912446
scalar Network400.node230 	discovery_resolution_rate 	66.666666666667
scalar Network400.node350 	rate_of_requesters 	1
scalar Network400.node350 	number_of_resources 	22000
scalar Network400.node350 	time_period 	8
scalar Network400.node350 	number_of_messages 	17
scalar Network400.node350 	discovery_latency 	1836
scalar Network400.node350 	number_of_desired_resources 	20
scalar Network400.node350 	query_homogenity_rate 	33.333333333333
scalar Network400.node350 	qrecord_time 	48433.749130597
scalar Network400.node350 	discovery_resolution_rate 	66.666666666667
scalar Network400.node330 	rate_of_requesters 	1
scalar Network400.node330 	number_of_resources 	22000
scalar Network400.node330 	time_period 	10
scalar Network400.node330 	number_of_messages 	17
scalar Network400.node330 	discovery_latency 	1836
scalar Network400.node330 	number_of_desired_resources 	20
scalar Network400.node330 	query_homogenity_rate 	33.333333333333
scalar Network400.node330 	qrecord_time 	48846.355310678
scalar Network400.node330 	discovery_resolution_rate 	66.666666666667
scalar Network400.node230 	rate_of_requesters 	1
scalar Network400.node230 	number_of_resources 	22000
scalar Network400.node230 	time_period 	7
scalar Network400.node230 	number_of_messages 	97
scalar Network400.node230 	discovery_latency 	2112
scalar Network400.node230 	number_of_desired_resources 	20
scalar Network400.node230 	query_homogenity_rate 	33.333333333333
scalar Network400.node230 	qrecord_time 	49205.402327424
scalar Network400.node230 	discovery_resolution_rate 	50
scalar Network400.node360 	rate_of_requesters 	1
scalar Network400.node360 	number_of_resources 	22000
scalar Network400.node360 	time_period 	7
scalar Network400.node360 	number_of_messages 	6
scalar Network400.node360 	discovery_latency 	2040
scalar Network400.node360 	number_of_desired_resources 	20
scalar Network400.node360 	query_homogenity_rate 	33.333333333333
scalar Network400.node360 	qrecord_time 	49258.327996372
scalar Network400.node360 	discovery_resolution_rate 	33.333333333333
scalar Network400.node260 	rate_of_requesters 	1
scalar Network400.node260 	number_of_resources 	22000
scalar Network400.node260 	time_period 	9
scalar Network400.node260 	number_of_messages 	7
scalar Network400.node260 	discovery_latency 	2076
scalar Network400.node260 	number_of_desired_resources 	20
scalar Network400.node260 	query_homogenity_rate 	33.333333333333
scalar Network400.node260 	qrecord_time 	49624.580127241
scalar Network400.node260 	discovery_resolution_rate 	33.333333333333
scalar Network400.node260 	rate_of_requesters 	1
scalar Network400.node260 	number_of_resources 	22000
scalar Network400.node260 	time_period 	10
scalar Network400.node260 	number_of_messages 	7
scalar Network400.node260 	discovery_latency 	2040
scalar Network400.node260 	number_of_desired_resources 	20
scalar Network400.node260 	query_homogenity_rate 	33.333333333333
scalar Network400.node260 	qrecord_time 	49712.674378029
scalar Network400.node260 	discovery_resolution_rate 	33.333333333333
scalar Network400.node320 	rate_of_requesters 	1
scalar Network400.node320 	number_of_resources 	22000
scalar Network400.node320 	time_period 	7
scalar Network400.node320 	number_of_messages 	19
scalar Network400.node320 	discovery_latency 	1836
scalar Network400.node320 	number_of_desired_resources 	20
scalar Network400.node320 	query_homogenity_rate 	33.333333333333
scalar Network400.node320 	qrecord_time 	49951.14319997
scalar Network400.node320 	discovery_resolution_rate 	66.666666666667
scalar Network400.node230 	rate_of_requesters 	1
scalar Network400.node230 	number_of_resources 	22000
scalar Network400.node230 	time_period 	8
scalar Network400.node230 	number_of_messages 	23
scalar Network400.node230 	discovery_latency 	1860
scalar Network400.node230 	number_of_desired_resources 	20
scalar Network400.node230 	query_homogenity_rate 	33.333333333333
scalar Network400.node230 	qrecord_time 	50327.457935708
scalar Network400.node230 	discovery_resolution_rate 	66.666666666667
scalar Network400.node200 	rate_of_requesters 	1
scalar Network400.node200 	number_of_resources 	22000
scalar Network400.node200 	time_period 	9
scalar Network400.node200 	number_of_messages 	16
scalar Network400.node200 	discovery_latency 	1836
scalar Network400.node200 	number_of_desired_resources 	20
scalar Network400.node200 	query_homogenity_rate 	33.333333333333
scalar Network400.node200 	qrecord_time 	51025.892493469
scalar Network400.node200 	discovery_resolution_rate 	66.666666666667
scalar Network400.node360 	rate_of_requesters 	1
scalar Network400.node360 	number_of_resources 	22000
scalar Network400.node360 	time_period 	8
scalar Network400.node360 	number_of_messages 	12
scalar Network400.node360 	discovery_latency 	1860
scalar Network400.node360 	number_of_desired_resources 	20
scalar Network400.node360 	query_homogenity_rate 	33.333333333333
scalar Network400.node360 	qrecord_time 	51662.92475747
scalar Network400.node360 	discovery_resolution_rate 	66.666666666667
scalar Network400.node380 	rate_of_requesters 	1
scalar Network400.node380 	number_of_resources 	22000
scalar Network400.node380 	time_period 	8
scalar Network400.node380 	number_of_messages 	11
scalar Network400.node380 	discovery_latency 	1812
scalar Network400.node380 	number_of_desired_resources 	20
scalar Network400.node380 	query_homogenity_rate 	33.333333333333
scalar Network400.node380 	qrecord_time 	52291.2587542
scalar Network400.node380 	discovery_resolution_rate 	66.666666666667
scalar Network400.node360 	rate_of_requesters 	1
scalar Network400.node360 	number_of_resources 	22000
scalar Network400.node360 	time_period 	9
scalar Network400.node360 	number_of_messages 	12
scalar Network400.node360 	discovery_latency 	1884
scalar Network400.node360 	number_of_desired_resources 	20
scalar Network400.node360 	query_homogenity_rate 	33.333333333333
scalar Network400.node360 	qrecord_time 	54661.56659818
scalar Network400.node360 	discovery_resolution_rate 	66.666666666667
scalar Network400.node230 	rate_of_requesters 	1
scalar Network400.node230 	number_of_resources 	22000
scalar Network400.node230 	time_period 	9
scalar Network400.node230 	number_of_messages 	18
scalar Network400.node230 	discovery_latency 	1788
scalar Network400.node230 	number_of_desired_resources 	20
scalar Network400.node230 	query_homogenity_rate 	33.333333333333
scalar Network400.node230 	qrecord_time 	54733.262039507
scalar Network400.node230 	discovery_resolution_rate 	66.666666666667
scalar Network400.node30 	rate_of_requesters 	1
scalar Network400.node30 	number_of_resources 	22000
scalar Network400.node30 	time_period 	10
scalar Network400.node30 	number_of_messages 	11
scalar Network400.node30 	discovery_latency 	1788
scalar Network400.node30 	number_of_desired_resources 	20
scalar Network400.node30 	query_homogenity_rate 	33.333333333333
scalar Network400.node30 	qrecord_time 	56296.645285969
scalar Network400.node30 	discovery_resolution_rate 	66.666666666667
scalar Network400.node200 	rate_of_requesters 	1
scalar Network400.node200 	number_of_resources 	22000
scalar Network400.node200 	time_period 	10
scalar Network400.node200 	number_of_messages 	16
scalar Network400.node200 	discovery_latency 	1800
scalar Network400.node200 	number_of_desired_resources 	20
scalar Network400.node200 	query_homogenity_rate 	33.333333333333
scalar Network400.node200 	qrecord_time 	56919.709012281
scalar Network400.node200 	discovery_resolution_rate 	66.666666666667
scalar Network400.node180 	rate_of_requesters 	1
scalar Network400.node180 	number_of_resources 	22000
scalar Network400.node180 	time_period 	8
scalar Network400.node180 	number_of_messages 	15
scalar Network400.node180 	discovery_latency 	1896
scalar Network400.node180 	number_of_desired_resources 	20
scalar Network400.node180 	query_homogenity_rate 	33.333333333333
scalar Network400.node180 	qrecord_time 	57444.875440401
scalar Network400.node180 	discovery_resolution_rate 	66.666666666667
scalar Network400.node350 	rate_of_requesters 	1
scalar Network400.node350 	number_of_resources 	22000
scalar Network400.node350 	time_period 	9
scalar Network400.node350 	number_of_messages 	17
scalar Network400.node350 	discovery_latency 	1776
scalar Network400.node350 	number_of_desired_resources 	20
scalar Network400.node350 	query_homogenity_rate 	33.333333333333
scalar Network400.node350 	qrecord_time 	57692.061310861
scalar Network400.node350 	discovery_resolution_rate 	66.666666666667
scalar Network400.node380 	rate_of_requesters 	1
scalar Network400.node380 	number_of_resources 	22000
scalar Network400.node380 	time_period 	9
scalar Network400.node380 	number_of_messages 	10
scalar Network400.node380 	discovery_latency 	1812
scalar Network400.node380 	number_of_desired_resources 	20
scalar Network400.node380 	query_homogenity_rate 	33.333333333333
scalar Network400.node380 	qrecord_time 	58184.850282505
scalar Network400.node380 	discovery_resolution_rate 	66.666666666667
scalar Network400.node320 	rate_of_requesters 	1
scalar Network400.node320 	number_of_resources 	22000
scalar Network400.node320 	time_period 	8
scalar Network400.node320 	number_of_messages 	14
scalar Network400.node320 	discovery_latency 	1848
scalar Network400.node320 	number_of_desired_resources 	20
scalar Network400.node320 	query_homogenity_rate 	33.333333333333
scalar Network400.node320 	qrecord_time 	59547.649724125
scalar Network400.node320 	discovery_resolution_rate 	66.666666666667
scalar Network400.node180 	rate_of_requesters 	1
scalar Network400.node180 	number_of_resources 	22000
scalar Network400.node180 	time_period 	9
scalar Network400.node180 	number_of_messages 	15
scalar Network400.node180 	discovery_latency 	1932
scalar Network400.node180 	number_of_desired_resources 	20
scalar Network400.node180 	query_homogenity_rate 	33.333333333333
scalar Network400.node180 	qrecord_time 	60551.582682089
scalar Network400.node180 	discovery_resolution_rate 	66.666666666667
scalar Network400.node380 	rate_of_requesters 	1
scalar Network400.node380 	number_of_resources 	22000
scalar Network400.node380 	time_period 	10
scalar Network400.node380 	number_of_messages 	10
scalar Network400.node380 	discovery_latency 	1824
scalar Network400.node380 	number_of_desired_resources 	20
scalar Network400.node380 	query_homogenity_rate 	33.333333333333
scalar Network400.node380 	qrecord_time 	61029.892836096
scalar Network400.node380 	discovery_resolution_rate 	66.666666666667
scalar Network400.node360 	rate_of_requesters 	1
scalar Network400.node360 	number_of_resources 	22000
scalar Network400.node360 	time_period 	10
scalar Network400.node360 	number_of_messages 	12
scalar Network400.node360 	discovery_latency 	1848
scalar Network400.node360 	number_of_desired_resources 	20
scalar Network400.node360 	query_homogenity_rate 	33.333333333333
scalar Network400.node360 	qrecord_time 	63594.49898258
scalar Network400.node360 	discovery_resolution_rate 	66.666666666667
scalar Network400.node350 	rate_of_requesters 	1
scalar Network400.node350 	number_of_resources 	22000
scalar Network400.node350 	time_period 	10
scalar Network400.node350 	number_of_messages 	11
scalar Network400.node350 	discovery_latency 	1776
scalar Network400.node350 	number_of_desired_resources 	20
scalar Network400.node350 	query_homogenity_rate 	33.333333333333
scalar Network400.node350 	qrecord_time 	65172.389215654
scalar Network400.node350 	discovery_resolution_rate 	66.666666666667
scalar Network400.node320 	rate_of_requesters 	1
scalar Network400.node320 	number_of_resources 	22000
scalar Network400.node320 	time_period 	9
scalar Network400.node320 	number_of_messages 	14
scalar Network400.node320 	discovery_latency 	1884
scalar Network400.node320 	number_of_desired_resources 	20
scalar Network400.node320 	query_homogenity_rate 	33.333333333333
scalar Network400.node320 	qrecord_time 	66620.231680314
scalar Network400.node320 	discovery_resolution_rate 	66.666666666667
scalar Network400.node180 	rate_of_requesters 	1
scalar Network400.node180 	number_of_resources 	22000
scalar Network400.node180 	time_period 	10
scalar Network400.node180 	number_of_messages 	15
scalar Network400.node180 	discovery_latency 	1860
scalar Network400.node180 	number_of_desired_resources 	20
scalar Network400.node180 	query_homogenity_rate 	33.333333333333
scalar Network400.node180 	qrecord_time 	68451.668591042
scalar Network400.node180 	discovery_resolution_rate 	66.666666666667
scalar Network400.node230 	rate_of_requesters 	1
scalar Network400.node230 	number_of_resources 	22000
scalar Network400.node230 	time_period 	10
scalar Network400.node230 	number_of_messages 	13
scalar Network400.node230 	discovery_latency 	1824
scalar Network400.node230 	number_of_desired_resources 	20
scalar Network400.node230 	query_homogenity_rate 	33.333333333333
scalar Network400.node230 	qrecord_time 	71059.939210194
scalar Network400.node230 	discovery_resolution_rate 	66.666666666667
scalar Network400.node320 	rate_of_requesters 	1
scalar Network400.node320 	number_of_resources 	22000
scalar Network400.node320 	time_period 	10
scalar Network400.node320 	number_of_messages 	14
scalar Network400.node320 	discovery_latency 	1800
scalar Network400.node320 	number_of_desired_resources 	20
scalar Network400.node320 	query_homogenity_rate 	33.333333333333
scalar Network400.node320 	qrecord_time 	75083.959303798
scalar Network400.node320 	discovery_resolution_rate 	66.666666666667
