version 2
run net500-4-20150323-15:11:41-3462
attr as 5
attr configname net500
attr datetime 20150323-15:11:41
attr dnor 20
attr experiment net500
attr inifile omnetpp.ini
attr iterationvars "$rhdrq=3, $dnor=20, $as=5"
attr iterationvars2 "$rhdrq=3, $dnor=20, $as=5, $repetition=0"
attr measurement "$rhdrq=3, $dnor=20, $as=5"
attr network Network500
attr processid 3462
attr repetition 0
attr replication #0
attr resultdir results
attr rhdrq 3
attr runnumber 4
attr seedset 4

scalar . 	as 	5
scalar . 	dnor 	20
scalar . 	rhdrq 	3
scalar Network500.node80 	rate_of_requesters 	1
scalar Network500.node80 	number_of_resources 	27500
scalar Network500.node80 	time_period 	1
scalar Network500.node80 	number_of_messages 	12
scalar Network500.node80 	discovery_latency 	48
scalar Network500.node80 	number_of_desired_resources 	20
scalar Network500.node80 	query_homogenity_rate 	33.333333333333
scalar Network500.node80 	qrecord_time 	4744
scalar Network500.node80 	discovery_resolution_rate 	100
scalar Network500.node0 	rate_of_requesters 	1
scalar Network500.node0 	number_of_resources 	27500
scalar Network500.node0 	time_period 	1
scalar Network500.node0 	number_of_messages 	13
scalar Network500.node0 	discovery_latency 	84
scalar Network500.node0 	number_of_desired_resources 	20
scalar Network500.node0 	query_homogenity_rate 	33.333333333333
scalar Network500.node0 	qrecord_time 	4774
scalar Network500.node0 	discovery_resolution_rate 	100
scalar Network500.node30 	rate_of_requesters 	1
scalar Network500.node30 	number_of_resources 	27500
scalar Network500.node30 	time_period 	1
scalar Network500.node30 	number_of_messages 	13
scalar Network500.node30 	discovery_latency 	84
scalar Network500.node30 	number_of_desired_resources 	20
scalar Network500.node30 	query_homogenity_rate 	33.333333333333
scalar Network500.node30 	qrecord_time 	4774
scalar Network500.node30 	discovery_resolution_rate 	100
scalar Network500.node330 	rate_of_requesters 	1
scalar Network500.node330 	number_of_resources 	27500
scalar Network500.node330 	time_period 	1
scalar Network500.node330 	number_of_messages 	13
scalar Network500.node330 	discovery_latency 	84
scalar Network500.node330 	number_of_desired_resources 	20
scalar Network500.node330 	query_homogenity_rate 	33.333333333333
scalar Network500.node330 	qrecord_time 	4774
scalar Network500.node330 	discovery_resolution_rate 	100
scalar Network500.node360 	rate_of_requesters 	1
scalar Network500.node360 	number_of_resources 	27500
scalar Network500.node360 	time_period 	1
scalar Network500.node360 	number_of_messages 	12
scalar Network500.node360 	discovery_latency 	48
scalar Network500.node360 	number_of_desired_resources 	20
scalar Network500.node360 	query_homogenity_rate 	33.333333333333
scalar Network500.node360 	qrecord_time 	4780
scalar Network500.node360 	discovery_resolution_rate 	100
scalar Network500.node450 	rate_of_requesters 	1
scalar Network500.node450 	number_of_resources 	27500
scalar Network500.node450 	time_period 	1
scalar Network500.node450 	number_of_messages 	15
scalar Network500.node450 	discovery_latency 	84.000000000001
scalar Network500.node450 	number_of_desired_resources 	20
scalar Network500.node450 	query_homogenity_rate 	33.333333333333
scalar Network500.node450 	qrecord_time 	4792
scalar Network500.node450 	discovery_resolution_rate 	100
scalar Network500.node90 	rate_of_requesters 	1
scalar Network500.node90 	number_of_resources 	27500
scalar Network500.node90 	time_period 	1
scalar Network500.node90 	number_of_messages 	28
scalar Network500.node90 	discovery_latency 	192
scalar Network500.node90 	number_of_desired_resources 	20
scalar Network500.node90 	query_homogenity_rate 	33.333333333333
scalar Network500.node90 	qrecord_time 	4858
scalar Network500.node90 	discovery_resolution_rate 	100
scalar Network500.node10 	rate_of_requesters 	1
scalar Network500.node10 	number_of_resources 	27500
scalar Network500.node10 	time_period 	1
scalar Network500.node10 	number_of_messages 	16
scalar Network500.node10 	discovery_latency 	174
scalar Network500.node10 	number_of_desired_resources 	20
scalar Network500.node10 	query_homogenity_rate 	33.333333333333
scalar Network500.node10 	qrecord_time 	4864
scalar Network500.node10 	discovery_resolution_rate 	100
scalar Network500.node490 	rate_of_requesters 	1
scalar Network500.node490 	number_of_resources 	27500
scalar Network500.node490 	time_period 	1
scalar Network500.node490 	number_of_messages 	9
scalar Network500.node490 	discovery_latency 	144
scalar Network500.node490 	number_of_desired_resources 	20
scalar Network500.node490 	query_homogenity_rate 	33.333333333333
scalar Network500.node490 	qrecord_time 	4876
scalar Network500.node490 	discovery_resolution_rate 	100
scalar Network500.node50 	rate_of_requesters 	1
scalar Network500.node50 	number_of_resources 	27500
scalar Network500.node50 	time_period 	1
scalar Network500.node50 	number_of_messages 	16
scalar Network500.node50 	discovery_latency 	174
scalar Network500.node50 	number_of_desired_resources 	20
scalar Network500.node50 	query_homogenity_rate 	33.333333333333
scalar Network500.node50 	qrecord_time 	4882
scalar Network500.node50 	discovery_resolution_rate 	100
scalar Network500.node280 	rate_of_requesters 	1
scalar Network500.node280 	number_of_resources 	27500
scalar Network500.node280 	time_period 	1
scalar Network500.node280 	number_of_messages 	38
scalar Network500.node280 	discovery_latency 	210
scalar Network500.node280 	number_of_desired_resources 	20
scalar Network500.node280 	query_homogenity_rate 	33.333333333333
scalar Network500.node280 	qrecord_time 	4882
scalar Network500.node280 	discovery_resolution_rate 	100
scalar Network500.node410 	rate_of_requesters 	1
scalar Network500.node410 	number_of_resources 	27500
scalar Network500.node410 	time_period 	1
scalar Network500.node410 	number_of_messages 	22
scalar Network500.node410 	discovery_latency 	120
scalar Network500.node410 	number_of_desired_resources 	20
scalar Network500.node410 	query_homogenity_rate 	33.333333333333
scalar Network500.node410 	qrecord_time 	4888
scalar Network500.node410 	discovery_resolution_rate 	100
scalar Network500.node160 	rate_of_requesters 	1
scalar Network500.node160 	number_of_resources 	27500
scalar Network500.node160 	time_period 	1
scalar Network500.node160 	number_of_messages 	33
scalar Network500.node160 	discovery_latency 	192
scalar Network500.node160 	number_of_desired_resources 	20
scalar Network500.node160 	query_homogenity_rate 	33.333333333333
scalar Network500.node160 	qrecord_time 	4888
scalar Network500.node160 	discovery_resolution_rate 	100
scalar Network500.node250 	rate_of_requesters 	1
scalar Network500.node250 	number_of_resources 	27500
scalar Network500.node250 	time_period 	1
scalar Network500.node250 	number_of_messages 	26
scalar Network500.node250 	discovery_latency 	168
scalar Network500.node250 	number_of_desired_resources 	20
scalar Network500.node250 	query_homogenity_rate 	33.333333333333
scalar Network500.node250 	qrecord_time 	4894
scalar Network500.node250 	discovery_resolution_rate 	100
scalar Network500.node470 	rate_of_requesters 	1
scalar Network500.node470 	number_of_resources 	27500
scalar Network500.node470 	time_period 	1
scalar Network500.node470 	number_of_messages 	16
scalar Network500.node470 	discovery_latency 	138
scalar Network500.node470 	number_of_desired_resources 	20
scalar Network500.node470 	query_homogenity_rate 	33.333333333333
scalar Network500.node470 	qrecord_time 	4906
scalar Network500.node470 	discovery_resolution_rate 	100
scalar Network500.node270 	rate_of_requesters 	1
scalar Network500.node270 	number_of_resources 	27500
scalar Network500.node270 	time_period 	1
scalar Network500.node270 	number_of_messages 	18
scalar Network500.node270 	discovery_latency 	144
scalar Network500.node270 	number_of_desired_resources 	20
scalar Network500.node270 	query_homogenity_rate 	33.333333333333
scalar Network500.node270 	qrecord_time 	4912
scalar Network500.node270 	discovery_resolution_rate 	100
scalar Network500.node70 	rate_of_requesters 	1
scalar Network500.node70 	number_of_resources 	27500
scalar Network500.node70 	time_period 	1
scalar Network500.node70 	number_of_messages 	22
scalar Network500.node70 	discovery_latency 	228
scalar Network500.node70 	number_of_desired_resources 	20
scalar Network500.node70 	query_homogenity_rate 	33.333333333333
scalar Network500.node70 	qrecord_time 	4918
scalar Network500.node70 	discovery_resolution_rate 	100
scalar Network500.node60 	rate_of_requesters 	1
scalar Network500.node60 	number_of_resources 	27500
scalar Network500.node60 	time_period 	1
scalar Network500.node60 	number_of_messages 	22
scalar Network500.node60 	discovery_latency 	162
scalar Network500.node60 	number_of_desired_resources 	20
scalar Network500.node60 	query_homogenity_rate 	33.333333333333
scalar Network500.node60 	qrecord_time 	4918
scalar Network500.node60 	discovery_resolution_rate 	100
scalar Network500.node350 	rate_of_requesters 	1
scalar Network500.node350 	number_of_resources 	27500
scalar Network500.node350 	time_period 	1
scalar Network500.node350 	number_of_messages 	22
scalar Network500.node350 	discovery_latency 	162
scalar Network500.node350 	number_of_desired_resources 	20
scalar Network500.node350 	query_homogenity_rate 	33.333333333333
scalar Network500.node350 	qrecord_time 	4918
scalar Network500.node350 	discovery_resolution_rate 	100
scalar Network500.node210 	rate_of_requesters 	1
scalar Network500.node210 	number_of_resources 	27500
scalar Network500.node210 	time_period 	1
scalar Network500.node210 	number_of_messages 	13
scalar Network500.node210 	discovery_latency 	114
scalar Network500.node210 	number_of_desired_resources 	20
scalar Network500.node210 	query_homogenity_rate 	33.333333333333
scalar Network500.node210 	qrecord_time 	4918
scalar Network500.node210 	discovery_resolution_rate 	100
scalar Network500.node300 	rate_of_requesters 	1
scalar Network500.node300 	number_of_resources 	27500
scalar Network500.node300 	time_period 	1
scalar Network500.node300 	number_of_messages 	32
scalar Network500.node300 	discovery_latency 	192
scalar Network500.node300 	number_of_desired_resources 	20
scalar Network500.node300 	query_homogenity_rate 	33.333333333333
scalar Network500.node300 	qrecord_time 	4918
scalar Network500.node300 	discovery_resolution_rate 	100
scalar Network500.node190 	rate_of_requesters 	1
scalar Network500.node190 	number_of_resources 	27500
scalar Network500.node190 	time_period 	1
scalar Network500.node190 	number_of_messages 	31
scalar Network500.node190 	discovery_latency 	240
scalar Network500.node190 	number_of_desired_resources 	20
scalar Network500.node190 	query_homogenity_rate 	33.333333333333
scalar Network500.node190 	qrecord_time 	4924
scalar Network500.node190 	discovery_resolution_rate 	100
scalar Network500.node310 	rate_of_requesters 	1
scalar Network500.node310 	number_of_resources 	27500
scalar Network500.node310 	time_period 	1
scalar Network500.node310 	number_of_messages 	26
scalar Network500.node310 	discovery_latency 	198
scalar Network500.node310 	number_of_desired_resources 	20
scalar Network500.node310 	query_homogenity_rate 	33.333333333333
scalar Network500.node310 	qrecord_time 	4930
scalar Network500.node310 	discovery_resolution_rate 	100
scalar Network500.node130 	rate_of_requesters 	1
scalar Network500.node130 	number_of_resources 	27500
scalar Network500.node130 	time_period 	1
scalar Network500.node130 	number_of_messages 	31
scalar Network500.node130 	discovery_latency 	216
scalar Network500.node130 	number_of_desired_resources 	20
scalar Network500.node130 	query_homogenity_rate 	33.333333333333
scalar Network500.node130 	qrecord_time 	4930
scalar Network500.node130 	discovery_resolution_rate 	100
scalar Network500.node110 	rate_of_requesters 	1
scalar Network500.node110 	number_of_resources 	27500
scalar Network500.node110 	time_period 	1
scalar Network500.node110 	number_of_messages 	21
scalar Network500.node110 	discovery_latency 	162
scalar Network500.node110 	number_of_desired_resources 	20
scalar Network500.node110 	query_homogenity_rate 	33.333333333333
scalar Network500.node110 	qrecord_time 	4936
scalar Network500.node110 	discovery_resolution_rate 	100
scalar Network500.node100 	rate_of_requesters 	1
scalar Network500.node100 	number_of_resources 	27500
scalar Network500.node100 	time_period 	1
scalar Network500.node100 	number_of_messages 	21
scalar Network500.node100 	discovery_latency 	162
scalar Network500.node100 	number_of_desired_resources 	20
scalar Network500.node100 	query_homogenity_rate 	33.333333333333
scalar Network500.node100 	qrecord_time 	4936
scalar Network500.node100 	discovery_resolution_rate 	100
scalar Network500.node420 	rate_of_requesters 	1
scalar Network500.node420 	number_of_resources 	27500
scalar Network500.node420 	time_period 	1
scalar Network500.node420 	number_of_messages 	13
scalar Network500.node420 	discovery_latency 	114
scalar Network500.node420 	number_of_desired_resources 	20
scalar Network500.node420 	query_homogenity_rate 	33.333333333333
scalar Network500.node420 	qrecord_time 	4954
scalar Network500.node420 	discovery_resolution_rate 	100
scalar Network500.node230 	rate_of_requesters 	1
scalar Network500.node230 	number_of_resources 	27500
scalar Network500.node230 	time_period 	1
scalar Network500.node230 	number_of_messages 	44
scalar Network500.node230 	discovery_latency 	300
scalar Network500.node230 	number_of_desired_resources 	20
scalar Network500.node230 	query_homogenity_rate 	33.333333333333
scalar Network500.node230 	qrecord_time 	5008
scalar Network500.node230 	discovery_resolution_rate 	100
scalar Network500.node120 	rate_of_requesters 	1
scalar Network500.node120 	number_of_resources 	27500
scalar Network500.node120 	time_period 	1
scalar Network500.node120 	number_of_messages 	27
scalar Network500.node120 	discovery_latency 	288
scalar Network500.node120 	number_of_desired_resources 	20
scalar Network500.node120 	query_homogenity_rate 	33.333333333333
scalar Network500.node120 	qrecord_time 	5056
scalar Network500.node120 	discovery_resolution_rate 	100
scalar Network500.node390 	rate_of_requesters 	1
scalar Network500.node390 	number_of_resources 	27500
scalar Network500.node390 	time_period 	1
scalar Network500.node390 	number_of_messages 	41
scalar Network500.node390 	discovery_latency 	372
scalar Network500.node390 	number_of_desired_resources 	20
scalar Network500.node390 	query_homogenity_rate 	33.333333333333
scalar Network500.node390 	qrecord_time 	5068
scalar Network500.node390 	discovery_resolution_rate 	100
scalar Network500.node40 	rate_of_requesters 	1
scalar Network500.node40 	number_of_resources 	27500
scalar Network500.node40 	time_period 	1
scalar Network500.node40 	number_of_messages 	35
scalar Network500.node40 	discovery_latency 	360
scalar Network500.node40 	number_of_desired_resources 	20
scalar Network500.node40 	query_homogenity_rate 	33.333333333333
scalar Network500.node40 	qrecord_time 	5074
scalar Network500.node40 	discovery_resolution_rate 	100
scalar Network500.node170 	rate_of_requesters 	1
scalar Network500.node170 	number_of_resources 	27500
scalar Network500.node170 	time_period 	1
scalar Network500.node170 	number_of_messages 	39
scalar Network500.node170 	discovery_latency 	324
scalar Network500.node170 	number_of_desired_resources 	20
scalar Network500.node170 	query_homogenity_rate 	33.333333333333
scalar Network500.node170 	qrecord_time 	5086
scalar Network500.node170 	discovery_resolution_rate 	100
scalar Network500.node140 	rate_of_requesters 	1
scalar Network500.node140 	number_of_resources 	27500
scalar Network500.node140 	time_period 	1
scalar Network500.node140 	number_of_messages 	35
scalar Network500.node140 	discovery_latency 	336
scalar Network500.node140 	number_of_desired_resources 	20
scalar Network500.node140 	query_homogenity_rate 	33.333333333333
scalar Network500.node140 	qrecord_time 	5092
scalar Network500.node140 	discovery_resolution_rate 	100
scalar Network500.node430 	rate_of_requesters 	1
scalar Network500.node430 	number_of_resources 	27500
scalar Network500.node430 	time_period 	1
scalar Network500.node430 	number_of_messages 	42
scalar Network500.node430 	discovery_latency 	372
scalar Network500.node430 	number_of_desired_resources 	20
scalar Network500.node430 	query_homogenity_rate 	33.333333333333
scalar Network500.node430 	qrecord_time 	5098
scalar Network500.node430 	discovery_resolution_rate 	100
scalar Network500.node480 	rate_of_requesters 	1
scalar Network500.node480 	number_of_resources 	27500
scalar Network500.node480 	time_period 	1
scalar Network500.node480 	number_of_messages 	41
scalar Network500.node480 	discovery_latency 	408
scalar Network500.node480 	number_of_desired_resources 	20
scalar Network500.node480 	query_homogenity_rate 	33.333333333333
scalar Network500.node480 	qrecord_time 	5134
scalar Network500.node480 	discovery_resolution_rate 	100
scalar Network500.node290 	rate_of_requesters 	1
scalar Network500.node290 	number_of_resources 	27500
scalar Network500.node290 	time_period 	1
scalar Network500.node290 	number_of_messages 	31
scalar Network500.node290 	discovery_latency 	312
scalar Network500.node290 	number_of_desired_resources 	20
scalar Network500.node290 	query_homogenity_rate 	33.333333333333
scalar Network500.node290 	qrecord_time 	5146
scalar Network500.node290 	discovery_resolution_rate 	100
scalar Network500.node370 	rate_of_requesters 	1
scalar Network500.node370 	number_of_resources 	27500
scalar Network500.node370 	time_period 	1
scalar Network500.node370 	number_of_messages 	31
scalar Network500.node370 	discovery_latency 	312
scalar Network500.node370 	number_of_desired_resources 	20
scalar Network500.node370 	query_homogenity_rate 	33.333333333333
scalar Network500.node370 	qrecord_time 	5164
scalar Network500.node370 	discovery_resolution_rate 	100
scalar Network500.node20 	rate_of_requesters 	1
scalar Network500.node20 	number_of_resources 	27500
scalar Network500.node20 	time_period 	1
scalar Network500.node20 	number_of_messages 	56
scalar Network500.node20 	discovery_latency 	492
scalar Network500.node20 	number_of_desired_resources 	20
scalar Network500.node20 	query_homogenity_rate 	33.333333333333
scalar Network500.node20 	qrecord_time 	5182
scalar Network500.node20 	discovery_resolution_rate 	100
scalar Network500.node240 	rate_of_requesters 	1
scalar Network500.node240 	number_of_resources 	27500
scalar Network500.node240 	time_period 	1
scalar Network500.node240 	number_of_messages 	54
scalar Network500.node240 	discovery_latency 	516
scalar Network500.node240 	number_of_desired_resources 	20
scalar Network500.node240 	query_homogenity_rate 	33.333333333333
scalar Network500.node240 	qrecord_time 	5206
scalar Network500.node240 	discovery_resolution_rate 	100
scalar Network500.node460 	rate_of_requesters 	1
scalar Network500.node460 	number_of_resources 	27500
scalar Network500.node460 	time_period 	1
scalar Network500.node460 	number_of_messages 	73
scalar Network500.node460 	discovery_latency 	456
scalar Network500.node460 	number_of_desired_resources 	20
scalar Network500.node460 	query_homogenity_rate 	33.333333333333
scalar Network500.node460 	qrecord_time 	5224
scalar Network500.node460 	discovery_resolution_rate 	100
scalar Network500.node440 	rate_of_requesters 	1
scalar Network500.node440 	number_of_resources 	27500
scalar Network500.node440 	time_period 	1
scalar Network500.node440 	number_of_messages 	44
scalar Network500.node440 	discovery_latency 	516
scalar Network500.node440 	number_of_desired_resources 	20
scalar Network500.node440 	query_homogenity_rate 	33.333333333333
scalar Network500.node440 	qrecord_time 	5224
scalar Network500.node440 	discovery_resolution_rate 	100
scalar Network500.node320 	rate_of_requesters 	1
scalar Network500.node320 	number_of_resources 	27500
scalar Network500.node320 	time_period 	1
scalar Network500.node320 	number_of_messages 	48
scalar Network500.node320 	discovery_latency 	636
scalar Network500.node320 	number_of_desired_resources 	20
scalar Network500.node320 	query_homogenity_rate 	33.333333333333
scalar Network500.node320 	qrecord_time 	5302
scalar Network500.node320 	discovery_resolution_rate 	100
scalar Network500.node180 	rate_of_requesters 	1
scalar Network500.node180 	number_of_resources 	27500
scalar Network500.node180 	time_period 	1
scalar Network500.node180 	number_of_messages 	46
scalar Network500.node180 	discovery_latency 	600
scalar Network500.node180 	number_of_desired_resources 	20
scalar Network500.node180 	query_homogenity_rate 	33.333333333333
scalar Network500.node180 	qrecord_time 	5314
scalar Network500.node180 	discovery_resolution_rate 	100
scalar Network500.node260 	rate_of_requesters 	1
scalar Network500.node260 	number_of_resources 	27500
scalar Network500.node260 	time_period 	1
scalar Network500.node260 	number_of_messages 	51
scalar Network500.node260 	discovery_latency 	600
scalar Network500.node260 	number_of_desired_resources 	20
scalar Network500.node260 	query_homogenity_rate 	33.333333333333
scalar Network500.node260 	qrecord_time 	5314
scalar Network500.node260 	discovery_resolution_rate 	100
scalar Network500.node200 	rate_of_requesters 	1
scalar Network500.node200 	number_of_resources 	27500
scalar Network500.node200 	time_period 	1
scalar Network500.node200 	number_of_messages 	89
scalar Network500.node200 	discovery_latency 	636
scalar Network500.node200 	number_of_desired_resources 	20
scalar Network500.node200 	query_homogenity_rate 	33.333333333333
scalar Network500.node200 	qrecord_time 	5362
scalar Network500.node200 	discovery_resolution_rate 	100
scalar Network500.node380 	rate_of_requesters 	1
scalar Network500.node380 	number_of_resources 	27500
scalar Network500.node380 	time_period 	1
scalar Network500.node380 	number_of_messages 	84
scalar Network500.node380 	discovery_latency 	792
scalar Network500.node380 	number_of_desired_resources 	20
scalar Network500.node380 	query_homogenity_rate 	33.333333333333
scalar Network500.node380 	qrecord_time 	5560
scalar Network500.node380 	discovery_resolution_rate 	100
scalar Network500.node340 	rate_of_requesters 	1
scalar Network500.node340 	number_of_resources 	27500
scalar Network500.node340 	time_period 	1
scalar Network500.node340 	number_of_messages 	92
scalar Network500.node340 	discovery_latency 	828
scalar Network500.node340 	number_of_desired_resources 	20
scalar Network500.node340 	query_homogenity_rate 	33.333333333333
scalar Network500.node340 	qrecord_time 	5596
scalar Network500.node340 	discovery_resolution_rate 	100
scalar Network500.node150 	rate_of_requesters 	1
scalar Network500.node150 	number_of_resources 	27500
scalar Network500.node150 	time_period 	1
scalar Network500.node150 	number_of_messages 	102
scalar Network500.node150 	discovery_latency 	888
scalar Network500.node150 	number_of_desired_resources 	20
scalar Network500.node150 	query_homogenity_rate 	33.333333333333
scalar Network500.node150 	qrecord_time 	5638
scalar Network500.node150 	discovery_resolution_rate 	100
scalar Network500.node220 	rate_of_requesters 	1
scalar Network500.node220 	number_of_resources 	27500
scalar Network500.node220 	time_period 	1
scalar Network500.node220 	number_of_messages 	80
scalar Network500.node220 	discovery_latency 	1032
scalar Network500.node220 	number_of_desired_resources 	20
scalar Network500.node220 	query_homogenity_rate 	33.333333333333
scalar Network500.node220 	qrecord_time 	5764
scalar Network500.node220 	discovery_resolution_rate 	100
scalar Network500.node400 	rate_of_requesters 	1
scalar Network500.node400 	number_of_resources 	27500
scalar Network500.node400 	time_period 	1
scalar Network500.node400 	number_of_messages 	115
scalar Network500.node400 	discovery_latency 	1104
scalar Network500.node400 	number_of_desired_resources 	20
scalar Network500.node400 	query_homogenity_rate 	33.333333333333
scalar Network500.node400 	qrecord_time 	5944
scalar Network500.node400 	discovery_resolution_rate 	100
scalar Network500.node300 	rate_of_requesters 	1
scalar Network500.node300 	number_of_resources 	27500
scalar Network500.node300 	time_period 	2
scalar Network500.node300 	number_of_messages 	25
scalar Network500.node300 	discovery_latency 	228
scalar Network500.node300 	number_of_desired_resources 	20
scalar Network500.node300 	query_homogenity_rate 	33.333333333333
scalar Network500.node300 	qrecord_time 	7721
scalar Network500.node300 	discovery_resolution_rate 	100
scalar Network500.node480 	rate_of_requesters 	1
scalar Network500.node480 	number_of_resources 	27500
scalar Network500.node480 	time_period 	2
scalar Network500.node480 	number_of_messages 	58
scalar Network500.node480 	discovery_latency 	648
scalar Network500.node480 	number_of_desired_resources 	20
scalar Network500.node480 	query_homogenity_rate 	33.333333333333
scalar Network500.node480 	qrecord_time 	7768
scalar Network500.node480 	discovery_resolution_rate 	100
scalar Network500.node420 	rate_of_requesters 	1
scalar Network500.node420 	number_of_resources 	27500
scalar Network500.node420 	time_period 	2
scalar Network500.node420 	number_of_messages 	98
scalar Network500.node420 	discovery_latency 	816
scalar Network500.node420 	number_of_desired_resources 	20
scalar Network500.node420 	query_homogenity_rate 	33.333333333333
scalar Network500.node420 	qrecord_time 	7953
scalar Network500.node420 	discovery_resolution_rate 	100
scalar Network500.node470 	rate_of_requesters 	1
scalar Network500.node470 	number_of_resources 	27500
scalar Network500.node470 	time_period 	2
scalar Network500.node470 	number_of_messages 	107
scalar Network500.node470 	discovery_latency 	888
scalar Network500.node470 	number_of_desired_resources 	20
scalar Network500.node470 	query_homogenity_rate 	33.333333333333
scalar Network500.node470 	qrecord_time 	8231
scalar Network500.node470 	discovery_resolution_rate 	100
scalar Network500.node350 	rate_of_requesters 	1
scalar Network500.node350 	number_of_resources 	27500
scalar Network500.node350 	time_period 	2
scalar Network500.node350 	number_of_messages 	98
scalar Network500.node350 	discovery_latency 	1422
scalar Network500.node350 	number_of_desired_resources 	20
scalar Network500.node350 	query_homogenity_rate 	33.333333333333
scalar Network500.node350 	qrecord_time 	8250
scalar Network500.node350 	discovery_resolution_rate 	100
scalar Network500.node90 	rate_of_requesters 	1
scalar Network500.node90 	number_of_resources 	27500
scalar Network500.node90 	time_period 	2
scalar Network500.node90 	number_of_messages 	128
scalar Network500.node90 	discovery_latency 	1068
scalar Network500.node90 	number_of_desired_resources 	20
scalar Network500.node90 	query_homogenity_rate 	33.333333333333
scalar Network500.node90 	qrecord_time 	8264
scalar Network500.node90 	discovery_resolution_rate 	100
scalar Network500.node180 	rate_of_requesters 	1
scalar Network500.node180 	number_of_resources 	27500
scalar Network500.node180 	time_period 	2
scalar Network500.node180 	number_of_messages 	136
scalar Network500.node180 	discovery_latency 	1296
scalar Network500.node180 	number_of_desired_resources 	20
scalar Network500.node180 	query_homogenity_rate 	33.333333333333
scalar Network500.node180 	qrecord_time 	8330
scalar Network500.node180 	discovery_resolution_rate 	100
scalar Network500.node220 	rate_of_requesters 	1
scalar Network500.node220 	number_of_resources 	27500
scalar Network500.node220 	time_period 	2
scalar Network500.node220 	number_of_messages 	63
scalar Network500.node220 	discovery_latency 	738
scalar Network500.node220 	number_of_desired_resources 	20
scalar Network500.node220 	query_homogenity_rate 	33.333333333333
scalar Network500.node220 	qrecord_time 	8374
scalar Network500.node220 	discovery_resolution_rate 	100
scalar Network500.node390 	rate_of_requesters 	1
scalar Network500.node390 	number_of_resources 	27500
scalar Network500.node390 	time_period 	2
scalar Network500.node390 	number_of_messages 	146
scalar Network500.node390 	discovery_latency 	1206
scalar Network500.node390 	number_of_desired_resources 	20
scalar Network500.node390 	query_homogenity_rate 	33.333333333333
scalar Network500.node390 	qrecord_time 	8578
scalar Network500.node390 	discovery_resolution_rate 	100
scalar Network500.node260 	rate_of_requesters 	1
scalar Network500.node260 	number_of_resources 	27500
scalar Network500.node260 	time_period 	2
scalar Network500.node260 	number_of_messages 	212
scalar Network500.node260 	discovery_latency 	1752
scalar Network500.node260 	number_of_desired_resources 	20
scalar Network500.node260 	query_homogenity_rate 	33.333333333333
scalar Network500.node260 	qrecord_time 	9147
scalar Network500.node260 	discovery_resolution_rate 	100
scalar Network500.node100 	rate_of_requesters 	1
scalar Network500.node100 	number_of_resources 	27500
scalar Network500.node100 	time_period 	2
scalar Network500.node100 	number_of_messages 	139
scalar Network500.node100 	discovery_latency 	1716
scalar Network500.node100 	number_of_desired_resources 	20
scalar Network500.node100 	query_homogenity_rate 	33.333333333333
scalar Network500.node100 	qrecord_time 	9282
scalar Network500.node100 	discovery_resolution_rate 	100
scalar Network500.node0 	rate_of_requesters 	1
scalar Network500.node0 	number_of_resources 	27500
scalar Network500.node0 	time_period 	2
scalar Network500.node0 	number_of_messages 	167
scalar Network500.node0 	discovery_latency 	1620
scalar Network500.node0 	number_of_desired_resources 	20
scalar Network500.node0 	query_homogenity_rate 	33.333333333333
scalar Network500.node0 	qrecord_time 	9440
scalar Network500.node0 	discovery_resolution_rate 	100
scalar Network500.node280 	rate_of_requesters 	1
scalar Network500.node280 	number_of_resources 	27500
scalar Network500.node280 	time_period 	2
scalar Network500.node280 	number_of_messages 	183
scalar Network500.node280 	discovery_latency 	1872
scalar Network500.node280 	number_of_desired_resources 	20
scalar Network500.node280 	query_homogenity_rate 	33.333333333333
scalar Network500.node280 	qrecord_time 	9880
scalar Network500.node280 	discovery_resolution_rate 	100
scalar Network500.node60 	rate_of_requesters 	1
scalar Network500.node60 	number_of_resources 	27500
scalar Network500.node60 	time_period 	2
scalar Network500.node60 	number_of_messages 	165
scalar Network500.node60 	discovery_latency 	2340
scalar Network500.node60 	number_of_desired_resources 	20
scalar Network500.node60 	query_homogenity_rate 	33.333333333333
scalar Network500.node60 	qrecord_time 	9920
scalar Network500.node60 	discovery_resolution_rate 	100
scalar Network500.node190 	rate_of_requesters 	1
scalar Network500.node190 	number_of_resources 	27500
scalar Network500.node190 	time_period 	2
scalar Network500.node190 	number_of_messages 	221
scalar Network500.node190 	discovery_latency 	1728
scalar Network500.node190 	number_of_desired_resources 	20
scalar Network500.node190 	query_homogenity_rate 	33.333333333333
scalar Network500.node190 	qrecord_time 	9945
scalar Network500.node190 	discovery_resolution_rate 	100
scalar Network500.node210 	rate_of_requesters 	1
scalar Network500.node210 	number_of_resources 	27500
scalar Network500.node210 	time_period 	2
scalar Network500.node210 	number_of_messages 	235
scalar Network500.node210 	discovery_latency 	2220
scalar Network500.node210 	number_of_desired_resources 	20
scalar Network500.node210 	query_homogenity_rate 	33.333333333333
scalar Network500.node210 	qrecord_time 	10383
scalar Network500.node210 	discovery_resolution_rate 	100
scalar Network500.node10 	rate_of_requesters 	1
scalar Network500.node10 	number_of_resources 	27500
scalar Network500.node10 	time_period 	2
scalar Network500.node10 	number_of_messages 	243
scalar Network500.node10 	discovery_latency 	2190
scalar Network500.node10 	number_of_desired_resources 	20
scalar Network500.node10 	query_homogenity_rate 	33.333333333333
scalar Network500.node10 	qrecord_time 	10389
scalar Network500.node10 	discovery_resolution_rate 	100
scalar Network500.node230 	rate_of_requesters 	1
scalar Network500.node230 	number_of_resources 	27500
scalar Network500.node230 	time_period 	2
scalar Network500.node230 	number_of_messages 	274
scalar Network500.node230 	discovery_latency 	2718
scalar Network500.node230 	number_of_desired_resources 	20
scalar Network500.node230 	query_homogenity_rate 	33.333333333333
scalar Network500.node230 	qrecord_time 	10548
scalar Network500.node230 	discovery_resolution_rate 	100
scalar Network500.node250 	rate_of_requesters 	1
scalar Network500.node250 	number_of_resources 	27500
scalar Network500.node250 	time_period 	2
scalar Network500.node250 	number_of_messages 	264
scalar Network500.node250 	discovery_latency 	2454
scalar Network500.node250 	number_of_desired_resources 	20
scalar Network500.node250 	query_homogenity_rate 	33.333333333333
scalar Network500.node250 	qrecord_time 	10592
scalar Network500.node250 	discovery_resolution_rate 	100
scalar Network500.node80 	rate_of_requesters 	1
scalar Network500.node80 	number_of_resources 	27500
scalar Network500.node80 	time_period 	2
scalar Network500.node80 	number_of_messages 	254
scalar Network500.node80 	discovery_latency 	2550
scalar Network500.node80 	number_of_desired_resources 	20
scalar Network500.node80 	query_homogenity_rate 	33.333333333333
scalar Network500.node80 	qrecord_time 	10728
scalar Network500.node80 	discovery_resolution_rate 	100
scalar Network500.node140 	rate_of_requesters 	1
scalar Network500.node140 	number_of_resources 	27500
scalar Network500.node140 	time_period 	2
scalar Network500.node140 	number_of_messages 	305
scalar Network500.node140 	discovery_latency 	2946
scalar Network500.node140 	number_of_desired_resources 	20
scalar Network500.node140 	query_homogenity_rate 	33.333333333333
scalar Network500.node140 	qrecord_time 	10744
scalar Network500.node140 	discovery_resolution_rate 	100
scalar Network500.node110 	rate_of_requesters 	1
scalar Network500.node110 	number_of_resources 	27500
scalar Network500.node110 	time_period 	2
scalar Network500.node110 	number_of_messages 	332
scalar Network500.node110 	discovery_latency 	2946
scalar Network500.node110 	number_of_desired_resources 	20
scalar Network500.node110 	query_homogenity_rate 	33.333333333333
scalar Network500.node110 	qrecord_time 	11829
scalar Network500.node110 	discovery_resolution_rate 	100
scalar Network500.node380 	rate_of_requesters 	1
scalar Network500.node380 	number_of_resources 	27500
scalar Network500.node380 	time_period 	2
scalar Network500.node380 	number_of_messages 	220
scalar Network500.node380 	discovery_latency 	3030
scalar Network500.node380 	number_of_desired_resources 	20
scalar Network500.node380 	query_homogenity_rate 	33.333333333333
scalar Network500.node380 	qrecord_time 	11876
scalar Network500.node380 	discovery_resolution_rate 	100
scalar Network500.node460 	rate_of_requesters 	1
scalar Network500.node460 	number_of_resources 	27500
scalar Network500.node460 	time_period 	2
scalar Network500.node460 	number_of_messages 	62
scalar Network500.node460 	discovery_latency 	5004
scalar Network500.node460 	number_of_desired_resources 	20
scalar Network500.node460 	query_homogenity_rate 	33.333333333333
scalar Network500.node460 	qrecord_time 	13179
scalar Network500.node460 	discovery_resolution_rate 	66.666666666667
scalar Network500.node240 	rate_of_requesters 	1
scalar Network500.node240 	number_of_resources 	27500
scalar Network500.node240 	time_period 	2
scalar Network500.node240 	number_of_messages 	217
scalar Network500.node240 	discovery_latency 	5136
scalar Network500.node240 	number_of_desired_resources 	20
scalar Network500.node240 	query_homogenity_rate 	33.333333333333
scalar Network500.node240 	qrecord_time 	13274
scalar Network500.node240 	discovery_resolution_rate 	66.666666666667
scalar Network500.node290 	rate_of_requesters 	1
scalar Network500.node290 	number_of_resources 	27500
scalar Network500.node290 	time_period 	2
scalar Network500.node290 	number_of_messages 	507
scalar Network500.node290 	discovery_latency 	5136
scalar Network500.node290 	number_of_desired_resources 	20
scalar Network500.node290 	query_homogenity_rate 	33.333333333333
scalar Network500.node290 	qrecord_time 	13318
scalar Network500.node290 	discovery_resolution_rate 	100
scalar Network500.node130 	rate_of_requesters 	1
scalar Network500.node130 	number_of_resources 	27500
scalar Network500.node130 	time_period 	2
scalar Network500.node130 	number_of_messages 	150
scalar Network500.node130 	discovery_latency 	5016
scalar Network500.node130 	number_of_desired_resources 	20
scalar Network500.node130 	query_homogenity_rate 	33.333333333333
scalar Network500.node130 	qrecord_time 	13691
scalar Network500.node130 	discovery_resolution_rate 	66.666666666667
scalar Network500.node200 	rate_of_requesters 	1
scalar Network500.node200 	number_of_resources 	27500
scalar Network500.node200 	time_period 	2
scalar Network500.node200 	number_of_messages 	254
scalar Network500.node200 	discovery_latency 	5160
scalar Network500.node200 	number_of_desired_resources 	20
scalar Network500.node200 	query_homogenity_rate 	33.333333333333
scalar Network500.node200 	qrecord_time 	13829
scalar Network500.node200 	discovery_resolution_rate 	33.333333333333
scalar Network500.node370 	rate_of_requesters 	1
scalar Network500.node370 	number_of_resources 	27500
scalar Network500.node370 	time_period 	3
scalar Network500.node370 	number_of_messages 	53
scalar Network500.node370 	discovery_latency 	456
scalar Network500.node370 	number_of_desired_resources 	20
scalar Network500.node370 	query_homogenity_rate 	33.333333333333
scalar Network500.node370 	qrecord_time 	13829.999999999
scalar Network500.node370 	discovery_resolution_rate 	100
scalar Network500.node20 	rate_of_requesters 	1
scalar Network500.node20 	number_of_resources 	27500
scalar Network500.node20 	time_period 	2
scalar Network500.node20 	number_of_messages 	199
scalar Network500.node20 	discovery_latency 	5436
scalar Network500.node20 	number_of_desired_resources 	20
scalar Network500.node20 	query_homogenity_rate 	33.333333333333
scalar Network500.node20 	qrecord_time 	13863
scalar Network500.node20 	discovery_resolution_rate 	66.666666666667
scalar Network500.node60 	rate_of_requesters 	1
scalar Network500.node60 	number_of_resources 	27500
scalar Network500.node60 	time_period 	4
scalar Network500.node60 	number_of_messages 	28
scalar Network500.node60 	discovery_latency 	240
scalar Network500.node60 	number_of_desired_resources 	20
scalar Network500.node60 	query_homogenity_rate 	33.333333333333
scalar Network500.node60 	qrecord_time 	13928
scalar Network500.node60 	discovery_resolution_rate 	100
scalar Network500.node430 	rate_of_requesters 	1
scalar Network500.node430 	number_of_resources 	27500
scalar Network500.node430 	time_period 	2
scalar Network500.node430 	number_of_messages 	298
scalar Network500.node430 	discovery_latency 	5040
scalar Network500.node430 	number_of_desired_resources 	20
scalar Network500.node430 	query_homogenity_rate 	33.333333333333
scalar Network500.node430 	qrecord_time 	13947
scalar Network500.node430 	discovery_resolution_rate 	66.666666666667
scalar Network500.node360 	rate_of_requesters 	1
scalar Network500.node360 	number_of_resources 	27500
scalar Network500.node360 	time_period 	2
scalar Network500.node360 	number_of_messages 	348
scalar Network500.node360 	discovery_latency 	5076
scalar Network500.node360 	number_of_desired_resources 	20
scalar Network500.node360 	query_homogenity_rate 	33.333333333333
scalar Network500.node360 	qrecord_time 	13970
scalar Network500.node360 	discovery_resolution_rate 	66.666666666667
scalar Network500.node340 	rate_of_requesters 	1
scalar Network500.node340 	number_of_resources 	27500
scalar Network500.node340 	time_period 	2
scalar Network500.node340 	number_of_messages 	58
scalar Network500.node340 	discovery_latency 	5424
scalar Network500.node340 	number_of_desired_resources 	20
scalar Network500.node340 	query_homogenity_rate 	33.333333333333
scalar Network500.node340 	qrecord_time 	14184
scalar Network500.node340 	discovery_resolution_rate 	33.333333333333
scalar Network500.node270 	rate_of_requesters 	1
scalar Network500.node270 	number_of_resources 	27500
scalar Network500.node270 	time_period 	2
scalar Network500.node270 	number_of_messages 	95
scalar Network500.node270 	discovery_latency 	5364
scalar Network500.node270 	number_of_desired_resources 	20
scalar Network500.node270 	query_homogenity_rate 	33.333333333333
scalar Network500.node270 	qrecord_time 	14215
scalar Network500.node270 	discovery_resolution_rate 	33.333333333333
scalar Network500.node100 	rate_of_requesters 	1
scalar Network500.node100 	number_of_resources 	27500
scalar Network500.node100 	time_period 	4
scalar Network500.node100 	number_of_messages 	90
scalar Network500.node100 	discovery_latency 	1332
scalar Network500.node100 	number_of_desired_resources 	20
scalar Network500.node100 	query_homogenity_rate 	33.333333333333
scalar Network500.node100 	qrecord_time 	14347
scalar Network500.node100 	discovery_resolution_rate 	100
scalar Network500.node160 	rate_of_requesters 	1
scalar Network500.node160 	number_of_resources 	27500
scalar Network500.node160 	time_period 	2
scalar Network500.node160 	number_of_messages 	108
scalar Network500.node160 	discovery_latency 	5424
scalar Network500.node160 	number_of_desired_resources 	20
scalar Network500.node160 	query_homogenity_rate 	33.333333333333
scalar Network500.node160 	qrecord_time 	14429.999999999
scalar Network500.node160 	discovery_resolution_rate 	33.333333333333
scalar Network500.node320 	rate_of_requesters 	1
scalar Network500.node320 	number_of_resources 	27500
scalar Network500.node320 	time_period 	3
scalar Network500.node320 	number_of_messages 	143
scalar Network500.node320 	discovery_latency 	1356
scalar Network500.node320 	number_of_desired_resources 	20
scalar Network500.node320 	query_homogenity_rate 	33.333333333333
scalar Network500.node320 	qrecord_time 	14454
scalar Network500.node320 	discovery_resolution_rate 	100
scalar Network500.node410 	rate_of_requesters 	1
scalar Network500.node410 	number_of_resources 	27500
scalar Network500.node410 	time_period 	2
scalar Network500.node410 	number_of_messages 	73
scalar Network500.node410 	discovery_latency 	5460
scalar Network500.node410 	number_of_desired_resources 	20
scalar Network500.node410 	query_homogenity_rate 	33.333333333333
scalar Network500.node410 	qrecord_time 	14484
scalar Network500.node410 	discovery_resolution_rate 	33.333333333333
scalar Network500.node90 	rate_of_requesters 	1
scalar Network500.node90 	number_of_resources 	27500
scalar Network500.node90 	time_period 	4
scalar Network500.node90 	number_of_messages 	79
scalar Network500.node90 	discovery_latency 	576
scalar Network500.node90 	number_of_desired_resources 	20
scalar Network500.node90 	query_homogenity_rate 	33.333333333333
scalar Network500.node90 	qrecord_time 	14493
scalar Network500.node90 	discovery_resolution_rate 	100
scalar Network500.node290 	rate_of_requesters 	1
scalar Network500.node290 	number_of_resources 	27500
scalar Network500.node290 	time_period 	3
scalar Network500.node290 	number_of_messages 	346
scalar Network500.node290 	discovery_latency 	2532
scalar Network500.node290 	number_of_desired_resources 	20
scalar Network500.node290 	query_homogenity_rate 	33.333333333333
scalar Network500.node290 	qrecord_time 	14518
scalar Network500.node290 	discovery_resolution_rate 	100
scalar Network500.node310 	rate_of_requesters 	1
scalar Network500.node310 	number_of_resources 	27500
scalar Network500.node310 	time_period 	3
scalar Network500.node310 	number_of_messages 	55
scalar Network500.node310 	discovery_latency 	516
scalar Network500.node310 	number_of_desired_resources 	20
scalar Network500.node310 	query_homogenity_rate 	33.333333333333
scalar Network500.node310 	qrecord_time 	14560
scalar Network500.node310 	discovery_resolution_rate 	100
scalar Network500.node70 	rate_of_requesters 	1
scalar Network500.node70 	number_of_resources 	27500
scalar Network500.node70 	time_period 	3
scalar Network500.node70 	number_of_messages 	76
scalar Network500.node70 	discovery_latency 	912
scalar Network500.node70 	number_of_desired_resources 	20
scalar Network500.node70 	query_homogenity_rate 	33.333333333333
scalar Network500.node70 	qrecord_time 	14561
scalar Network500.node70 	discovery_resolution_rate 	100
scalar Network500.node350 	rate_of_requesters 	1
scalar Network500.node350 	number_of_resources 	27500
scalar Network500.node350 	time_period 	3
scalar Network500.node350 	number_of_messages 	2
scalar Network500.node350 	discovery_latency 	5364
scalar Network500.node350 	number_of_desired_resources 	20
scalar Network500.node350 	query_homogenity_rate 	33.333333333333
scalar Network500.node350 	qrecord_time 	14630
scalar Network500.node350 	discovery_resolution_rate 	0
scalar Network500.node470 	rate_of_requesters 	1
scalar Network500.node470 	number_of_resources 	27500
scalar Network500.node470 	time_period 	4
scalar Network500.node470 	number_of_messages 	29
scalar Network500.node470 	discovery_latency 	246
scalar Network500.node470 	number_of_desired_resources 	20
scalar Network500.node470 	query_homogenity_rate 	33.333333333333
scalar Network500.node470 	qrecord_time 	14678.999999999
scalar Network500.node470 	discovery_resolution_rate 	100
scalar Network500.node400 	rate_of_requesters 	1
scalar Network500.node400 	number_of_resources 	27500
scalar Network500.node400 	time_period 	2
scalar Network500.node400 	number_of_messages 	299
scalar Network500.node400 	discovery_latency 	5472
scalar Network500.node400 	number_of_desired_resources 	20
scalar Network500.node400 	query_homogenity_rate 	33.333333333333
scalar Network500.node400 	qrecord_time 	14742
scalar Network500.node400 	discovery_resolution_rate 	50
scalar Network500.node40 	rate_of_requesters 	1
scalar Network500.node40 	number_of_resources 	27500
scalar Network500.node40 	time_period 	2
scalar Network500.node40 	number_of_messages 	26
scalar Network500.node40 	discovery_latency 	5484
scalar Network500.node40 	number_of_desired_resources 	20
scalar Network500.node40 	query_homogenity_rate 	33.333333333333
scalar Network500.node40 	qrecord_time 	14763
scalar Network500.node40 	discovery_resolution_rate 	33.333333333333
scalar Network500.node420 	rate_of_requesters 	1
scalar Network500.node420 	number_of_resources 	27500
scalar Network500.node420 	time_period 	3
scalar Network500.node420 	number_of_messages 	234
scalar Network500.node420 	discovery_latency 	2424
scalar Network500.node420 	number_of_desired_resources 	20
scalar Network500.node420 	query_homogenity_rate 	33.333333333333
scalar Network500.node420 	qrecord_time 	14779
scalar Network500.node420 	discovery_resolution_rate 	100
scalar Network500.node220 	rate_of_requesters 	1
scalar Network500.node220 	number_of_resources 	27500
scalar Network500.node220 	time_period 	3
scalar Network500.node220 	number_of_messages 	251
scalar Network500.node220 	discovery_latency 	2406
scalar Network500.node220 	number_of_desired_resources 	20
scalar Network500.node220 	query_homogenity_rate 	33.333333333333
scalar Network500.node220 	qrecord_time 	14791
scalar Network500.node220 	discovery_resolution_rate 	100
scalar Network500.node480 	rate_of_requesters 	1
scalar Network500.node480 	number_of_resources 	27500
scalar Network500.node480 	time_period 	4
scalar Network500.node480 	number_of_messages 	62
scalar Network500.node480 	discovery_latency 	762
scalar Network500.node480 	number_of_desired_resources 	20
scalar Network500.node480 	query_homogenity_rate 	33.333333333333
scalar Network500.node480 	qrecord_time 	14792
scalar Network500.node480 	discovery_resolution_rate 	100
scalar Network500.node370 	rate_of_requesters 	1
scalar Network500.node370 	number_of_resources 	27500
scalar Network500.node370 	time_period 	2
scalar Network500.node370 	number_of_messages 	529
scalar Network500.node370 	discovery_latency 	5520
scalar Network500.node370 	number_of_desired_resources 	20
scalar Network500.node370 	query_homogenity_rate 	33.333333333333
scalar Network500.node370 	qrecord_time 	14831
scalar Network500.node370 	discovery_resolution_rate 	33.333333333333
scalar Network500.node250 	rate_of_requesters 	1
scalar Network500.node250 	number_of_resources 	27500
scalar Network500.node250 	time_period 	4
scalar Network500.node250 	number_of_messages 	21
scalar Network500.node250 	discovery_latency 	120
scalar Network500.node250 	number_of_desired_resources 	20
scalar Network500.node250 	query_homogenity_rate 	33.333333333333
scalar Network500.node250 	qrecord_time 	14854
scalar Network500.node250 	discovery_resolution_rate 	100
scalar Network500.node110 	rate_of_requesters 	1
scalar Network500.node110 	number_of_resources 	27500
scalar Network500.node110 	time_period 	3
scalar Network500.node110 	number_of_messages 	267
scalar Network500.node110 	discovery_latency 	2580
scalar Network500.node110 	number_of_desired_resources 	20
scalar Network500.node110 	query_homogenity_rate 	33.333333333333
scalar Network500.node110 	qrecord_time 	14921
scalar Network500.node110 	discovery_resolution_rate 	100
scalar Network500.node290 	rate_of_requesters 	1
scalar Network500.node290 	number_of_resources 	27500
scalar Network500.node290 	time_period 	4
scalar Network500.node290 	number_of_messages 	73
scalar Network500.node290 	discovery_latency 	846
scalar Network500.node290 	number_of_desired_resources 	20
scalar Network500.node290 	query_homogenity_rate 	33.333333333333
scalar Network500.node290 	qrecord_time 	14945
scalar Network500.node290 	discovery_resolution_rate 	100
scalar Network500.node410 	rate_of_requesters 	1
scalar Network500.node410 	number_of_resources 	27500
scalar Network500.node410 	time_period 	3
scalar Network500.node410 	number_of_messages 	434
scalar Network500.node410 	discovery_latency 	2988
scalar Network500.node410 	number_of_desired_resources 	20
scalar Network500.node410 	query_homogenity_rate 	33.333333333333
scalar Network500.node410 	qrecord_time 	15012
scalar Network500.node410 	discovery_resolution_rate 	100
scalar Network500.node120 	rate_of_requesters 	1
scalar Network500.node120 	number_of_resources 	27500
scalar Network500.node120 	time_period 	3
scalar Network500.node120 	number_of_messages 	141
scalar Network500.node120 	discovery_latency 	2028
scalar Network500.node120 	number_of_desired_resources 	20
scalar Network500.node120 	query_homogenity_rate 	33.333333333333
scalar Network500.node120 	qrecord_time 	15040
scalar Network500.node120 	discovery_resolution_rate 	100
scalar Network500.node10 	rate_of_requesters 	1
scalar Network500.node10 	number_of_resources 	27500
scalar Network500.node10 	time_period 	3
scalar Network500.node10 	number_of_messages 	221
scalar Network500.node10 	discovery_latency 	2028
scalar Network500.node10 	number_of_desired_resources 	20
scalar Network500.node10 	query_homogenity_rate 	33.333333333333
scalar Network500.node10 	qrecord_time 	15079
scalar Network500.node10 	discovery_resolution_rate 	100
scalar Network500.node360 	rate_of_requesters 	1
scalar Network500.node360 	number_of_resources 	27500
scalar Network500.node360 	time_period 	3
scalar Network500.node360 	number_of_messages 	23
scalar Network500.node360 	discovery_latency 	228
scalar Network500.node360 	number_of_desired_resources 	20
scalar Network500.node360 	query_homogenity_rate 	33.333333333333
scalar Network500.node360 	qrecord_time 	15080
scalar Network500.node360 	discovery_resolution_rate 	100
scalar Network500.node320 	rate_of_requesters 	1
scalar Network500.node320 	number_of_resources 	27500
scalar Network500.node320 	time_period 	2
scalar Network500.node320 	number_of_messages 	172
scalar Network500.node320 	discovery_latency 	5040
scalar Network500.node320 	number_of_desired_resources 	20
scalar Network500.node320 	query_homogenity_rate 	33.333333333333
scalar Network500.node320 	qrecord_time 	15087
scalar Network500.node320 	discovery_resolution_rate 	33.333333333333
scalar Network500.node170 	rate_of_requesters 	1
scalar Network500.node170 	number_of_resources 	27500
scalar Network500.node170 	time_period 	2
scalar Network500.node170 	number_of_messages 	2
scalar Network500.node170 	discovery_latency 	5496
scalar Network500.node170 	number_of_desired_resources 	20
scalar Network500.node170 	query_homogenity_rate 	33.333333333333
scalar Network500.node170 	qrecord_time 	15125
scalar Network500.node170 	discovery_resolution_rate 	0
scalar Network500.node130 	rate_of_requesters 	1
scalar Network500.node130 	number_of_resources 	27500
scalar Network500.node130 	time_period 	3
scalar Network500.node130 	number_of_messages 	84
scalar Network500.node130 	discovery_latency 	1212
scalar Network500.node130 	number_of_desired_resources 	20
scalar Network500.node130 	query_homogenity_rate 	33.333333333333
scalar Network500.node130 	qrecord_time 	15207
scalar Network500.node130 	discovery_resolution_rate 	100
scalar Network500.node490 	rate_of_requesters 	1
scalar Network500.node490 	number_of_resources 	27500
scalar Network500.node490 	time_period 	2
scalar Network500.node490 	number_of_messages 	2
scalar Network500.node490 	discovery_latency 	5400
scalar Network500.node490 	number_of_desired_resources 	20
scalar Network500.node490 	query_homogenity_rate 	33.333333333333
scalar Network500.node490 	qrecord_time 	15229
scalar Network500.node490 	discovery_resolution_rate 	0
scalar Network500.node480 	rate_of_requesters 	1
scalar Network500.node480 	number_of_resources 	27500
scalar Network500.node480 	time_period 	3
scalar Network500.node480 	number_of_messages 	214
scalar Network500.node480 	discovery_latency 	5112
scalar Network500.node480 	number_of_desired_resources 	20
scalar Network500.node480 	query_homogenity_rate 	33.333333333333
scalar Network500.node480 	qrecord_time 	15232
scalar Network500.node480 	discovery_resolution_rate 	33.333333333333
scalar Network500.node70 	rate_of_requesters 	1
scalar Network500.node70 	number_of_resources 	27500
scalar Network500.node70 	time_period 	2
scalar Network500.node70 	number_of_messages 	57
scalar Network500.node70 	discovery_latency 	5388
scalar Network500.node70 	number_of_desired_resources 	20
scalar Network500.node70 	query_homogenity_rate 	33.333333333333
scalar Network500.node70 	qrecord_time 	15298
scalar Network500.node70 	discovery_resolution_rate 	33.333333333333
scalar Network500.node160 	rate_of_requesters 	1
scalar Network500.node160 	number_of_resources 	27500
scalar Network500.node160 	time_period 	3
scalar Network500.node160 	number_of_messages 	98
scalar Network500.node160 	discovery_latency 	954
scalar Network500.node160 	number_of_desired_resources 	20
scalar Network500.node160 	query_homogenity_rate 	33.333333333333
scalar Network500.node160 	qrecord_time 	15299.999999999
scalar Network500.node160 	discovery_resolution_rate 	100
scalar Network500.node490 	rate_of_requesters 	1
scalar Network500.node490 	number_of_resources 	27500
scalar Network500.node490 	time_period 	3
scalar Network500.node490 	number_of_messages 	18
scalar Network500.node490 	discovery_latency 	252
scalar Network500.node490 	number_of_desired_resources 	20
scalar Network500.node490 	query_homogenity_rate 	33.333333333333
scalar Network500.node490 	qrecord_time 	15303
scalar Network500.node490 	discovery_resolution_rate 	100
scalar Network500.node190 	rate_of_requesters 	1
scalar Network500.node190 	number_of_resources 	27500
scalar Network500.node190 	time_period 	3
scalar Network500.node190 	number_of_messages 	333
scalar Network500.node190 	discovery_latency 	2700
scalar Network500.node190 	number_of_desired_resources 	20
scalar Network500.node190 	query_homogenity_rate 	33.333333333333
scalar Network500.node190 	qrecord_time 	15381
scalar Network500.node190 	discovery_resolution_rate 	100
scalar Network500.node330 	rate_of_requesters 	1
scalar Network500.node330 	number_of_resources 	27500
scalar Network500.node330 	time_period 	2
scalar Network500.node330 	number_of_messages 	268
scalar Network500.node330 	discovery_latency 	5364
scalar Network500.node330 	number_of_desired_resources 	20
scalar Network500.node330 	query_homogenity_rate 	33.333333333333
scalar Network500.node330 	qrecord_time 	15386
scalar Network500.node330 	discovery_resolution_rate 	50
scalar Network500.node170 	rate_of_requesters 	1
scalar Network500.node170 	number_of_resources 	27500
scalar Network500.node170 	time_period 	3
scalar Network500.node170 	number_of_messages 	395
scalar Network500.node170 	discovery_latency 	3024
scalar Network500.node170 	number_of_desired_resources 	20
scalar Network500.node170 	query_homogenity_rate 	33.333333333333
scalar Network500.node170 	qrecord_time 	15397
scalar Network500.node170 	discovery_resolution_rate 	100
scalar Network500.node380 	rate_of_requesters 	1
scalar Network500.node380 	number_of_resources 	27500
scalar Network500.node380 	time_period 	3
scalar Network500.node380 	number_of_messages 	97
scalar Network500.node380 	discovery_latency 	1476
scalar Network500.node380 	number_of_desired_resources 	20
scalar Network500.node380 	query_homogenity_rate 	33.333333333333
scalar Network500.node380 	qrecord_time 	15400
scalar Network500.node380 	discovery_resolution_rate 	100
scalar Network500.node140 	rate_of_requesters 	1
scalar Network500.node140 	number_of_resources 	27500
scalar Network500.node140 	time_period 	4
scalar Network500.node140 	number_of_messages 	53
scalar Network500.node140 	discovery_latency 	696
scalar Network500.node140 	number_of_desired_resources 	20
scalar Network500.node140 	query_homogenity_rate 	33.333333333333
scalar Network500.node140 	qrecord_time 	15461.999999999
scalar Network500.node140 	discovery_resolution_rate 	100
scalar Network500.node340 	rate_of_requesters 	1
scalar Network500.node340 	number_of_resources 	27500
scalar Network500.node340 	time_period 	3
scalar Network500.node340 	number_of_messages 	92
scalar Network500.node340 	discovery_latency 	978
scalar Network500.node340 	number_of_desired_resources 	20
scalar Network500.node340 	query_homogenity_rate 	33.333333333333
scalar Network500.node340 	qrecord_time 	15472
scalar Network500.node340 	discovery_resolution_rate 	100
scalar Network500.node330 	rate_of_requesters 	1
scalar Network500.node330 	number_of_resources 	27500
scalar Network500.node330 	time_period 	4
scalar Network500.node330 	number_of_messages 	63
scalar Network500.node330 	discovery_latency 	468
scalar Network500.node330 	number_of_desired_resources 	20
scalar Network500.node330 	query_homogenity_rate 	33.333333333333
scalar Network500.node330 	qrecord_time 	15561
scalar Network500.node330 	discovery_resolution_rate 	100
scalar Network500.node50 	rate_of_requesters 	1
scalar Network500.node50 	number_of_resources 	27500
scalar Network500.node50 	time_period 	3
scalar Network500.node50 	number_of_messages 	126
scalar Network500.node50 	discovery_latency 	1632
scalar Network500.node50 	number_of_desired_resources 	20
scalar Network500.node50 	query_homogenity_rate 	33.333333333333
scalar Network500.node50 	qrecord_time 	15626
scalar Network500.node50 	discovery_resolution_rate 	100
scalar Network500.node310 	rate_of_requesters 	1
scalar Network500.node310 	number_of_resources 	27500
scalar Network500.node310 	time_period 	2
scalar Network500.node310 	number_of_messages 	2
scalar Network500.node310 	discovery_latency 	5388
scalar Network500.node310 	number_of_desired_resources 	20
scalar Network500.node310 	query_homogenity_rate 	33.333333333333
scalar Network500.node310 	qrecord_time 	15650
scalar Network500.node310 	discovery_resolution_rate 	0
scalar Network500.node470 	rate_of_requesters 	1
scalar Network500.node470 	number_of_resources 	27500
scalar Network500.node470 	time_period 	3
scalar Network500.node470 	number_of_messages 	0
scalar Network500.node470 	discovery_latency 	5448
scalar Network500.node470 	number_of_desired_resources 	20
scalar Network500.node470 	query_homogenity_rate 	33.333333333333
scalar Network500.node470 	qrecord_time 	15709
scalar Network500.node470 	discovery_resolution_rate 	0
scalar Network500.node100 	rate_of_requesters 	1
scalar Network500.node100 	number_of_resources 	27500
scalar Network500.node100 	time_period 	3
scalar Network500.node100 	number_of_messages 	2
scalar Network500.node100 	discovery_latency 	5340
scalar Network500.node100 	number_of_desired_resources 	20
scalar Network500.node100 	query_homogenity_rate 	33.333333333333
scalar Network500.node100 	qrecord_time 	15805
scalar Network500.node100 	discovery_resolution_rate 	0
scalar Network500.node150 	rate_of_requesters 	1
scalar Network500.node150 	number_of_resources 	27500
scalar Network500.node150 	time_period 	2
scalar Network500.node150 	number_of_messages 	190
scalar Network500.node150 	discovery_latency 	5076
scalar Network500.node150 	number_of_desired_resources 	20
scalar Network500.node150 	query_homogenity_rate 	33.333333333333
scalar Network500.node150 	qrecord_time 	15813
scalar Network500.node150 	discovery_resolution_rate 	33.333333333333
scalar Network500.node60 	rate_of_requesters 	1
scalar Network500.node60 	number_of_resources 	27500
scalar Network500.node60 	time_period 	3
scalar Network500.node60 	number_of_messages 	2
scalar Network500.node60 	discovery_latency 	5376
scalar Network500.node60 	number_of_desired_resources 	20
scalar Network500.node60 	query_homogenity_rate 	33.333333333333
scalar Network500.node60 	qrecord_time 	15840
scalar Network500.node60 	discovery_resolution_rate 	0
scalar Network500.node120 	rate_of_requesters 	1
scalar Network500.node120 	number_of_resources 	27500
scalar Network500.node120 	time_period 	2
scalar Network500.node120 	number_of_messages 	0
scalar Network500.node120 	discovery_latency 	5448
scalar Network500.node120 	number_of_desired_resources 	20
scalar Network500.node120 	query_homogenity_rate 	33.333333333333
scalar Network500.node120 	qrecord_time 	15907
scalar Network500.node120 	discovery_resolution_rate 	0
scalar Network500.node450 	rate_of_requesters 	1
scalar Network500.node450 	number_of_resources 	27500
scalar Network500.node450 	time_period 	2
scalar Network500.node450 	number_of_messages 	2
scalar Network500.node450 	discovery_latency 	5388
scalar Network500.node450 	number_of_desired_resources 	20
scalar Network500.node450 	query_homogenity_rate 	33.333333333333
scalar Network500.node450 	qrecord_time 	15920
scalar Network500.node450 	discovery_resolution_rate 	0
scalar Network500.node440 	rate_of_requesters 	1
scalar Network500.node440 	number_of_resources 	27500
scalar Network500.node440 	time_period 	2
scalar Network500.node440 	number_of_messages 	2
scalar Network500.node440 	discovery_latency 	5352
scalar Network500.node440 	number_of_desired_resources 	20
scalar Network500.node440 	query_homogenity_rate 	33.333333333333
scalar Network500.node440 	qrecord_time 	15921
scalar Network500.node440 	discovery_resolution_rate 	0
scalar Network500.node30 	rate_of_requesters 	1
scalar Network500.node30 	number_of_resources 	27500
scalar Network500.node30 	time_period 	2
scalar Network500.node30 	number_of_messages 	2
scalar Network500.node30 	discovery_latency 	5388
scalar Network500.node30 	number_of_desired_resources 	20
scalar Network500.node30 	query_homogenity_rate 	33.333333333333
scalar Network500.node30 	qrecord_time 	15926
scalar Network500.node30 	discovery_resolution_rate 	0
scalar Network500.node170 	rate_of_requesters 	1
scalar Network500.node170 	number_of_resources 	27500
scalar Network500.node170 	time_period 	4
scalar Network500.node170 	number_of_messages 	44
scalar Network500.node170 	discovery_latency 	456
scalar Network500.node170 	number_of_desired_resources 	20
scalar Network500.node170 	query_homogenity_rate 	33.333333333333
scalar Network500.node170 	qrecord_time 	15932
scalar Network500.node170 	discovery_resolution_rate 	100
scalar Network500.node190 	rate_of_requesters 	1
scalar Network500.node190 	number_of_resources 	27500
scalar Network500.node190 	time_period 	4
scalar Network500.node190 	number_of_messages 	81
scalar Network500.node190 	discovery_latency 	576
scalar Network500.node190 	number_of_desired_resources 	20
scalar Network500.node190 	query_homogenity_rate 	33.333333333333
scalar Network500.node190 	qrecord_time 	15949
scalar Network500.node190 	discovery_resolution_rate 	100
scalar Network500.node50 	rate_of_requesters 	1
scalar Network500.node50 	number_of_resources 	27500
scalar Network500.node50 	time_period 	2
scalar Network500.node50 	number_of_messages 	287
scalar Network500.node50 	discovery_latency 	5496
scalar Network500.node50 	number_of_desired_resources 	20
scalar Network500.node50 	query_homogenity_rate 	33.333333333333
scalar Network500.node50 	qrecord_time 	15979
scalar Network500.node50 	discovery_resolution_rate 	16.666666666667
scalar Network500.node460 	rate_of_requesters 	1
scalar Network500.node460 	number_of_resources 	27500
scalar Network500.node460 	time_period 	4
scalar Network500.node460 	number_of_messages 	96
scalar Network500.node460 	discovery_latency 	1278
scalar Network500.node460 	number_of_desired_resources 	20
scalar Network500.node460 	query_homogenity_rate 	33.333333333333
scalar Network500.node460 	qrecord_time 	16175
scalar Network500.node460 	discovery_resolution_rate 	100
scalar Network500.node250 	rate_of_requesters 	1
scalar Network500.node250 	number_of_resources 	27500
scalar Network500.node250 	time_period 	3
scalar Network500.node250 	number_of_messages 	2
scalar Network500.node250 	discovery_latency 	5364
scalar Network500.node250 	number_of_desired_resources 	20
scalar Network500.node250 	query_homogenity_rate 	33.333333333333
scalar Network500.node250 	qrecord_time 	16188
scalar Network500.node250 	discovery_resolution_rate 	0
scalar Network500.node430 	rate_of_requesters 	1
scalar Network500.node430 	number_of_resources 	27500
scalar Network500.node430 	time_period 	3
scalar Network500.node430 	number_of_messages 	2
scalar Network500.node430 	discovery_latency 	5304
scalar Network500.node430 	number_of_desired_resources 	20
scalar Network500.node430 	query_homogenity_rate 	33.333333333333
scalar Network500.node430 	qrecord_time 	16216
scalar Network500.node430 	discovery_resolution_rate 	0
scalar Network500.node90 	rate_of_requesters 	1
scalar Network500.node90 	number_of_resources 	27500
scalar Network500.node90 	time_period 	3
scalar Network500.node90 	number_of_messages 	479
scalar Network500.node90 	discovery_latency 	5136
scalar Network500.node90 	number_of_desired_resources 	20
scalar Network500.node90 	query_homogenity_rate 	33.333333333333
scalar Network500.node90 	qrecord_time 	16217
scalar Network500.node90 	discovery_resolution_rate 	66.666666666667
scalar Network500.node240 	rate_of_requesters 	1
scalar Network500.node240 	number_of_resources 	27500
scalar Network500.node240 	time_period 	3
scalar Network500.node240 	number_of_messages 	277
scalar Network500.node240 	discovery_latency 	5040
scalar Network500.node240 	number_of_desired_resources 	20
scalar Network500.node240 	query_homogenity_rate 	33.333333333333
scalar Network500.node240 	qrecord_time 	16451
scalar Network500.node240 	discovery_resolution_rate 	66.666666666667
scalar Network500.node150 	rate_of_requesters 	1
scalar Network500.node150 	number_of_resources 	27500
scalar Network500.node150 	time_period 	3
scalar Network500.node150 	number_of_messages 	67
scalar Network500.node150 	discovery_latency 	666
scalar Network500.node150 	number_of_desired_resources 	20
scalar Network500.node150 	query_homogenity_rate 	33.333333333333
scalar Network500.node150 	qrecord_time 	16570
scalar Network500.node150 	discovery_resolution_rate 	100
scalar Network500.node210 	rate_of_requesters 	1
scalar Network500.node210 	number_of_resources 	27500
scalar Network500.node210 	time_period 	3
scalar Network500.node210 	number_of_messages 	363
scalar Network500.node210 	discovery_latency 	5412
scalar Network500.node210 	number_of_desired_resources 	20
scalar Network500.node210 	query_homogenity_rate 	33.333333333333
scalar Network500.node210 	qrecord_time 	16631
scalar Network500.node210 	discovery_resolution_rate 	66.666666666667
scalar Network500.node200 	rate_of_requesters 	1
scalar Network500.node200 	number_of_resources 	27500
scalar Network500.node200 	time_period 	3
scalar Network500.node200 	number_of_messages 	199
scalar Network500.node200 	discovery_latency 	5472
scalar Network500.node200 	number_of_desired_resources 	20
scalar Network500.node200 	query_homogenity_rate 	33.333333333333
scalar Network500.node200 	qrecord_time 	16793
scalar Network500.node200 	discovery_resolution_rate 	33.333333333333
scalar Network500.node140 	rate_of_requesters 	1
scalar Network500.node140 	number_of_resources 	27500
scalar Network500.node140 	time_period 	3
scalar Network500.node140 	number_of_messages 	189
scalar Network500.node140 	discovery_latency 	4980
scalar Network500.node140 	number_of_desired_resources 	20
scalar Network500.node140 	query_homogenity_rate 	33.333333333333
scalar Network500.node140 	qrecord_time 	16816.999999999
scalar Network500.node140 	discovery_resolution_rate 	66.666666666667
scalar Network500.node460 	rate_of_requesters 	1
scalar Network500.node460 	number_of_resources 	27500
scalar Network500.node460 	time_period 	3
scalar Network500.node460 	number_of_messages 	148
scalar Network500.node460 	discovery_latency 	5436
scalar Network500.node460 	number_of_desired_resources 	20
scalar Network500.node460 	query_homogenity_rate 	33.333333333333
scalar Network500.node460 	qrecord_time 	16908
scalar Network500.node460 	discovery_resolution_rate 	33.333333333333
scalar Network500.node280 	rate_of_requesters 	1
scalar Network500.node280 	number_of_resources 	27500
scalar Network500.node280 	time_period 	3
scalar Network500.node280 	number_of_messages 	190
scalar Network500.node280 	discovery_latency 	5064
scalar Network500.node280 	number_of_desired_resources 	20
scalar Network500.node280 	query_homogenity_rate 	33.333333333333
scalar Network500.node280 	qrecord_time 	17165
scalar Network500.node280 	discovery_resolution_rate 	66.666666666667
scalar Network500.node400 	rate_of_requesters 	1
scalar Network500.node400 	number_of_resources 	27500
scalar Network500.node400 	time_period 	3
scalar Network500.node400 	number_of_messages 	217
scalar Network500.node400 	discovery_latency 	2748
scalar Network500.node400 	number_of_desired_resources 	20
scalar Network500.node400 	query_homogenity_rate 	33.333333333333
scalar Network500.node400 	qrecord_time 	17237
scalar Network500.node400 	discovery_resolution_rate 	100
scalar Network500.node20 	rate_of_requesters 	1
scalar Network500.node20 	number_of_resources 	27500
scalar Network500.node20 	time_period 	3
scalar Network500.node20 	number_of_messages 	239
scalar Network500.node20 	discovery_latency 	5100
scalar Network500.node20 	number_of_desired_resources 	20
scalar Network500.node20 	query_homogenity_rate 	33.333333333333
scalar Network500.node20 	qrecord_time 	17287
scalar Network500.node20 	discovery_resolution_rate 	66.666666666667
scalar Network500.node260 	rate_of_requesters 	1
scalar Network500.node260 	number_of_resources 	27500
scalar Network500.node260 	time_period 	3
scalar Network500.node260 	number_of_messages 	215
scalar Network500.node260 	discovery_latency 	5076
scalar Network500.node260 	number_of_desired_resources 	20
scalar Network500.node260 	query_homogenity_rate 	33.333333333333
scalar Network500.node260 	qrecord_time 	17330
scalar Network500.node260 	discovery_resolution_rate 	66.666666666667
scalar Network500.node180 	rate_of_requesters 	1
scalar Network500.node180 	number_of_resources 	27500
scalar Network500.node180 	time_period 	3
scalar Network500.node180 	number_of_messages 	187
scalar Network500.node180 	discovery_latency 	5052
scalar Network500.node180 	number_of_desired_resources 	20
scalar Network500.node180 	query_homogenity_rate 	33.333333333333
scalar Network500.node180 	qrecord_time 	17367
scalar Network500.node180 	discovery_resolution_rate 	66.666666666667
scalar Network500.node0 	rate_of_requesters 	1
scalar Network500.node0 	number_of_resources 	27500
scalar Network500.node0 	time_period 	3
scalar Network500.node0 	number_of_messages 	217
scalar Network500.node0 	discovery_latency 	5460
scalar Network500.node0 	number_of_desired_resources 	20
scalar Network500.node0 	query_homogenity_rate 	33.333333333333
scalar Network500.node0 	qrecord_time 	17398
scalar Network500.node0 	discovery_resolution_rate 	33.333333333333
scalar Network500.node80 	rate_of_requesters 	1
scalar Network500.node80 	number_of_resources 	27500
scalar Network500.node80 	time_period 	3
scalar Network500.node80 	number_of_messages 	322
scalar Network500.node80 	discovery_latency 	4044
scalar Network500.node80 	number_of_desired_resources 	20
scalar Network500.node80 	query_homogenity_rate 	33.333333333333
scalar Network500.node80 	qrecord_time 	17402
scalar Network500.node80 	discovery_resolution_rate 	100
scalar Network500.node390 	rate_of_requesters 	1
scalar Network500.node390 	number_of_resources 	27500
scalar Network500.node390 	time_period 	4
scalar Network500.node390 	number_of_messages 	149
scalar Network500.node390 	discovery_latency 	1602
scalar Network500.node390 	number_of_desired_resources 	20
scalar Network500.node390 	query_homogenity_rate 	33.333333333333
scalar Network500.node390 	qrecord_time 	17447
scalar Network500.node390 	discovery_resolution_rate 	100
scalar Network500.node390 	rate_of_requesters 	1
scalar Network500.node390 	number_of_resources 	27500
scalar Network500.node390 	time_period 	3
scalar Network500.node390 	number_of_messages 	183
scalar Network500.node390 	discovery_latency 	5448
scalar Network500.node390 	number_of_desired_resources 	20
scalar Network500.node390 	query_homogenity_rate 	33.333333333333
scalar Network500.node390 	qrecord_time 	17456
scalar Network500.node390 	discovery_resolution_rate 	66.666666666667
scalar Network500.node270 	rate_of_requesters 	1
scalar Network500.node270 	number_of_resources 	27500
scalar Network500.node270 	time_period 	3
scalar Network500.node270 	number_of_messages 	503
scalar Network500.node270 	discovery_latency 	5100
scalar Network500.node270 	number_of_desired_resources 	20
scalar Network500.node270 	query_homogenity_rate 	33.333333333333
scalar Network500.node270 	qrecord_time 	17545
scalar Network500.node270 	discovery_resolution_rate 	83.333333333333
scalar Network500.node0 	rate_of_requesters 	1
scalar Network500.node0 	number_of_resources 	27500
scalar Network500.node0 	time_period 	4
scalar Network500.node0 	number_of_messages 	185
scalar Network500.node0 	discovery_latency 	1398
scalar Network500.node0 	number_of_desired_resources 	20
scalar Network500.node0 	query_homogenity_rate 	33.333333333333
scalar Network500.node0 	qrecord_time 	17685
scalar Network500.node0 	discovery_resolution_rate 	100
scalar Network500.node330 	rate_of_requesters 	1
scalar Network500.node330 	number_of_resources 	27500
scalar Network500.node330 	time_period 	3
scalar Network500.node330 	number_of_messages 	318
scalar Network500.node330 	discovery_latency 	5460
scalar Network500.node330 	number_of_desired_resources 	20
scalar Network500.node330 	query_homogenity_rate 	33.333333333333
scalar Network500.node330 	qrecord_time 	17697
scalar Network500.node330 	discovery_resolution_rate 	66.666666666667
scalar Network500.node300 	rate_of_requesters 	1
scalar Network500.node300 	number_of_resources 	27500
scalar Network500.node300 	time_period 	3
scalar Network500.node300 	number_of_messages 	201
scalar Network500.node300 	discovery_latency 	5100
scalar Network500.node300 	number_of_desired_resources 	20
scalar Network500.node300 	query_homogenity_rate 	33.333333333333
scalar Network500.node300 	qrecord_time 	17852
scalar Network500.node300 	discovery_resolution_rate 	66.666666666667
scalar Network500.node20 	rate_of_requesters 	1
scalar Network500.node20 	number_of_resources 	27500
scalar Network500.node20 	time_period 	4
scalar Network500.node20 	number_of_messages 	124
scalar Network500.node20 	discovery_latency 	990
scalar Network500.node20 	number_of_desired_resources 	20
scalar Network500.node20 	query_homogenity_rate 	33.333333333333
scalar Network500.node20 	qrecord_time 	17906
scalar Network500.node20 	discovery_resolution_rate 	100
scalar Network500.node230 	rate_of_requesters 	1
scalar Network500.node230 	number_of_resources 	27500
scalar Network500.node230 	time_period 	3
scalar Network500.node230 	number_of_messages 	222
scalar Network500.node230 	discovery_latency 	5496
scalar Network500.node230 	number_of_desired_resources 	20
scalar Network500.node230 	query_homogenity_rate 	33.333333333333
scalar Network500.node230 	qrecord_time 	18170
scalar Network500.node230 	discovery_resolution_rate 	66.666666666667
scalar Network500.node450 	rate_of_requesters 	1
scalar Network500.node450 	number_of_resources 	27500
scalar Network500.node450 	time_period 	3
scalar Network500.node450 	number_of_messages 	328
scalar Network500.node450 	discovery_latency 	5004
scalar Network500.node450 	number_of_desired_resources 	20
scalar Network500.node450 	query_homogenity_rate 	33.333333333333
scalar Network500.node450 	qrecord_time 	18274
scalar Network500.node450 	discovery_resolution_rate 	83.333333333333
scalar Network500.node40 	rate_of_requesters 	1
scalar Network500.node40 	number_of_resources 	27500
scalar Network500.node40 	time_period 	3
scalar Network500.node40 	number_of_messages 	351
scalar Network500.node40 	discovery_latency 	5052
scalar Network500.node40 	number_of_desired_resources 	20
scalar Network500.node40 	query_homogenity_rate 	33.333333333333
scalar Network500.node40 	qrecord_time 	18350.999999999
scalar Network500.node40 	discovery_resolution_rate 	83.333333333333
scalar Network500.node350 	rate_of_requesters 	1
scalar Network500.node350 	number_of_resources 	27500
scalar Network500.node350 	time_period 	4
scalar Network500.node350 	number_of_messages 	82
scalar Network500.node350 	discovery_latency 	5076
scalar Network500.node350 	number_of_desired_resources 	20
scalar Network500.node350 	query_homogenity_rate 	33.333333333333
scalar Network500.node350 	qrecord_time 	18388
scalar Network500.node350 	discovery_resolution_rate 	66.666666666667
scalar Network500.node260 	rate_of_requesters 	1
scalar Network500.node260 	number_of_resources 	27500
scalar Network500.node260 	time_period 	4
scalar Network500.node260 	number_of_messages 	257
scalar Network500.node260 	discovery_latency 	4284
scalar Network500.node260 	number_of_desired_resources 	20
scalar Network500.node260 	query_homogenity_rate 	33.333333333333
scalar Network500.node260 	qrecord_time 	18992
scalar Network500.node260 	discovery_resolution_rate 	100
scalar Network500.node430 	rate_of_requesters 	1
scalar Network500.node430 	number_of_resources 	27500
scalar Network500.node430 	time_period 	4
scalar Network500.node430 	number_of_messages 	345
scalar Network500.node430 	discovery_latency 	3576
scalar Network500.node430 	number_of_desired_resources 	20
scalar Network500.node430 	query_homogenity_rate 	33.333333333333
scalar Network500.node430 	qrecord_time 	19794
scalar Network500.node430 	discovery_resolution_rate 	100
scalar Network500.node240 	rate_of_requesters 	1
scalar Network500.node240 	number_of_resources 	27500
scalar Network500.node240 	time_period 	4
scalar Network500.node240 	number_of_messages 	37
scalar Network500.node240 	discovery_latency 	5064
scalar Network500.node240 	number_of_desired_resources 	20
scalar Network500.node240 	query_homogenity_rate 	33.333333333333
[...]
scalar Network500.node150 	time_period 	94
scalar Network500.node150 	number_of_messages 	176
scalar Network500.node150 	discovery_latency 	2730
scalar Network500.node150 	number_of_desired_resources 	20
scalar Network500.node150 	query_homogenity_rate 	33.333333333333
scalar Network500.node150 	qrecord_time 	404157
scalar Network500.node150 	discovery_resolution_rate 	100
scalar Network500.node320 	rate_of_requesters 	1
scalar Network500.node320 	number_of_resources 	27500
scalar Network500.node320 	time_period 	100
scalar Network500.node320 	number_of_messages 	71
scalar Network500.node320 	discovery_latency 	822
scalar Network500.node320 	number_of_desired_resources 	20
scalar Network500.node320 	query_homogenity_rate 	33.333333333333
scalar Network500.node320 	qrecord_time 	404195
scalar Network500.node320 	discovery_resolution_rate 	100
scalar Network500.node480 	rate_of_requesters 	1
scalar Network500.node480 	number_of_resources 	27500
scalar Network500.node480 	time_period 	99
scalar Network500.node480 	number_of_messages 	106
scalar Network500.node480 	discovery_latency 	1218
scalar Network500.node480 	number_of_desired_resources 	20
scalar Network500.node480 	query_homogenity_rate 	33.333333333333
scalar Network500.node480 	qrecord_time 	404245
scalar Network500.node480 	discovery_resolution_rate 	100
scalar Network500.node140 	rate_of_requesters 	1
scalar Network500.node140 	number_of_resources 	27500
scalar Network500.node140 	time_period 	97
scalar Network500.node140 	number_of_messages 	252
scalar Network500.node140 	discovery_latency 	3078
scalar Network500.node140 	number_of_desired_resources 	20
scalar Network500.node140 	query_homogenity_rate 	33.333333333333
scalar Network500.node140 	qrecord_time 	404466
scalar Network500.node140 	discovery_resolution_rate 	100
scalar Network500.node410 	rate_of_requesters 	1
scalar Network500.node410 	number_of_resources 	27500
scalar Network500.node410 	time_period 	99
scalar Network500.node410 	number_of_messages 	124
scalar Network500.node410 	discovery_latency 	1302
scalar Network500.node410 	number_of_desired_resources 	20
scalar Network500.node410 	query_homogenity_rate 	33.333333333333
scalar Network500.node410 	qrecord_time 	404779
scalar Network500.node410 	discovery_resolution_rate 	100
scalar Network500.node310 	rate_of_requesters 	1
scalar Network500.node310 	number_of_resources 	27500
scalar Network500.node310 	time_period 	100
scalar Network500.node310 	number_of_messages 	58
scalar Network500.node310 	discovery_latency 	516.00000000002
scalar Network500.node310 	number_of_desired_resources 	20
scalar Network500.node310 	query_homogenity_rate 	33.333333333333
scalar Network500.node310 	qrecord_time 	404872.99999999
scalar Network500.node310 	discovery_resolution_rate 	100
scalar Network500.node450 	rate_of_requesters 	1
scalar Network500.node450 	number_of_resources 	27500
scalar Network500.node450 	time_period 	99
scalar Network500.node450 	number_of_messages 	107
scalar Network500.node450 	discovery_latency 	1530
scalar Network500.node450 	number_of_desired_resources 	20
scalar Network500.node450 	query_homogenity_rate 	33.333333333333
scalar Network500.node450 	qrecord_time 	405073.99999999
scalar Network500.node450 	discovery_resolution_rate 	100
scalar Network500.node160 	rate_of_requesters 	1
scalar Network500.node160 	number_of_resources 	27500
scalar Network500.node160 	time_period 	97
scalar Network500.node160 	number_of_messages 	88
scalar Network500.node160 	discovery_latency 	924.00000000004
scalar Network500.node160 	number_of_desired_resources 	20
scalar Network500.node160 	query_homogenity_rate 	33.333333333333
scalar Network500.node160 	qrecord_time 	405198.99999999
scalar Network500.node160 	discovery_resolution_rate 	100
scalar Network500.node360 	rate_of_requesters 	1
scalar Network500.node360 	number_of_resources 	27500
scalar Network500.node360 	time_period 	99
scalar Network500.node360 	number_of_messages 	29
scalar Network500.node360 	discovery_latency 	323.99999999996
scalar Network500.node360 	number_of_desired_resources 	20
scalar Network500.node360 	query_homogenity_rate 	33.333333333333
scalar Network500.node360 	qrecord_time 	405241
scalar Network500.node360 	discovery_resolution_rate 	100
scalar Network500.node50 	rate_of_requesters 	1
scalar Network500.node50 	number_of_resources 	27500
scalar Network500.node50 	time_period 	99
scalar Network500.node50 	number_of_messages 	22
scalar Network500.node50 	discovery_latency 	120
scalar Network500.node50 	number_of_desired_resources 	20
scalar Network500.node50 	query_homogenity_rate 	33.333333333333
scalar Network500.node50 	qrecord_time 	405631.99999999
scalar Network500.node50 	discovery_resolution_rate 	100
scalar Network500.node340 	rate_of_requesters 	1
scalar Network500.node340 	number_of_resources 	27500
scalar Network500.node340 	time_period 	99
scalar Network500.node340 	number_of_messages 	38
scalar Network500.node340 	discovery_latency 	323.99999999996
scalar Network500.node340 	number_of_desired_resources 	20
scalar Network500.node340 	query_homogenity_rate 	33.333333333333
scalar Network500.node340 	qrecord_time 	405969
scalar Network500.node340 	discovery_resolution_rate 	100
scalar Network500.node140 	rate_of_requesters 	1
scalar Network500.node140 	number_of_resources 	27500
scalar Network500.node140 	time_period 	98
scalar Network500.node140 	number_of_messages 	64
scalar Network500.node140 	discovery_latency 	473.99999999999
scalar Network500.node140 	number_of_desired_resources 	20
scalar Network500.node140 	query_homogenity_rate 	33.333333333333
scalar Network500.node140 	qrecord_time 	406269
scalar Network500.node140 	discovery_resolution_rate 	100
scalar Network500.node390 	rate_of_requesters 	1
scalar Network500.node390 	number_of_resources 	27500
scalar Network500.node390 	time_period 	100
scalar Network500.node390 	number_of_messages 	49
scalar Network500.node390 	discovery_latency 	498.00000000005
scalar Network500.node390 	number_of_desired_resources 	20
scalar Network500.node390 	query_homogenity_rate 	33.333333333333
scalar Network500.node390 	qrecord_time 	406586.99999999
scalar Network500.node390 	discovery_resolution_rate 	100
scalar Network500.node260 	rate_of_requesters 	1
scalar Network500.node260 	number_of_resources 	27500
scalar Network500.node260 	time_period 	98
scalar Network500.node260 	number_of_messages 	47
scalar Network500.node260 	discovery_latency 	479.99999999996
scalar Network500.node260 	number_of_desired_resources 	20
scalar Network500.node260 	query_homogenity_rate 	33.333333333333
scalar Network500.node260 	qrecord_time 	406735
scalar Network500.node260 	discovery_resolution_rate 	100
scalar Network500.node150 	rate_of_requesters 	1
scalar Network500.node150 	number_of_resources 	27500
scalar Network500.node150 	time_period 	95
scalar Network500.node150 	number_of_messages 	54
scalar Network500.node150 	discovery_latency 	672.00000000003
scalar Network500.node150 	number_of_desired_resources 	20
scalar Network500.node150 	query_homogenity_rate 	33.333333333333
scalar Network500.node150 	qrecord_time 	406843
scalar Network500.node150 	discovery_resolution_rate 	100
scalar Network500.node90 	rate_of_requesters 	1
scalar Network500.node90 	number_of_resources 	27500
scalar Network500.node90 	time_period 	98
scalar Network500.node90 	number_of_messages 	29
scalar Network500.node90 	discovery_latency 	155.99999999995
scalar Network500.node90 	number_of_desired_resources 	20
scalar Network500.node90 	query_homogenity_rate 	33.333333333333
scalar Network500.node90 	qrecord_time 	407069
scalar Network500.node90 	discovery_resolution_rate 	100
scalar Network500.node450 	rate_of_requesters 	1
scalar Network500.node450 	number_of_resources 	27500
scalar Network500.node450 	time_period 	100
scalar Network500.node450 	number_of_messages 	19
scalar Network500.node450 	discovery_latency 	234.00000000004
scalar Network500.node450 	number_of_desired_resources 	20
scalar Network500.node450 	query_homogenity_rate 	33.333333333333
scalar Network500.node450 	qrecord_time 	407277.99999999
scalar Network500.node450 	discovery_resolution_rate 	100
scalar Network500.node300 	rate_of_requesters 	1
scalar Network500.node300 	number_of_resources 	27500
scalar Network500.node300 	time_period 	99
scalar Network500.node300 	number_of_messages 	61
scalar Network500.node300 	discovery_latency 	527.99999999996
scalar Network500.node300 	number_of_desired_resources 	20
scalar Network500.node300 	query_homogenity_rate 	33.333333333333
scalar Network500.node300 	qrecord_time 	407362.99999999
scalar Network500.node300 	discovery_resolution_rate 	100
scalar Network500.node410 	rate_of_requesters 	1
scalar Network500.node410 	number_of_resources 	27500
scalar Network500.node410 	time_period 	100
scalar Network500.node410 	number_of_messages 	36
scalar Network500.node410 	discovery_latency 	336.00000000001
scalar Network500.node410 	number_of_desired_resources 	20
scalar Network500.node410 	query_homogenity_rate 	33.333333333333
scalar Network500.node410 	qrecord_time 	407496
scalar Network500.node410 	discovery_resolution_rate 	100
scalar Network500.node160 	rate_of_requesters 	1
scalar Network500.node160 	number_of_resources 	27500
scalar Network500.node160 	time_period 	98
scalar Network500.node160 	number_of_messages 	51
scalar Network500.node160 	discovery_latency 	396.00000000002
scalar Network500.node160 	number_of_desired_resources 	20
scalar Network500.node160 	query_homogenity_rate 	33.333333333333
scalar Network500.node160 	qrecord_time 	407523.99999999
scalar Network500.node160 	discovery_resolution_rate 	100
scalar Network500.node230 	rate_of_requesters 	1
scalar Network500.node230 	number_of_resources 	27500
scalar Network500.node230 	time_period 	98
scalar Network500.node230 	number_of_messages 	65
scalar Network500.node230 	discovery_latency 	551.99999999996
scalar Network500.node230 	number_of_desired_resources 	20
scalar Network500.node230 	query_homogenity_rate 	33.333333333333
scalar Network500.node230 	qrecord_time 	407774
scalar Network500.node230 	discovery_resolution_rate 	100
scalar Network500.node360 	rate_of_requesters 	1
scalar Network500.node360 	number_of_resources 	27500
scalar Network500.node360 	time_period 	100
scalar Network500.node360 	number_of_messages 	45
scalar Network500.node360 	discovery_latency 	456.00000000002
scalar Network500.node360 	number_of_desired_resources 	20
scalar Network500.node360 	query_homogenity_rate 	33.333333333333
scalar Network500.node360 	qrecord_time 	407995
scalar Network500.node360 	discovery_resolution_rate 	100
scalar Network500.node480 	rate_of_requesters 	1
scalar Network500.node480 	number_of_resources 	27500
scalar Network500.node480 	time_period 	100
scalar Network500.node480 	number_of_messages 	40
scalar Network500.node480 	discovery_latency 	456.00000000002
scalar Network500.node480 	number_of_desired_resources 	20
scalar Network500.node480 	query_homogenity_rate 	33.333333333333
scalar Network500.node480 	qrecord_time 	408238
scalar Network500.node480 	discovery_resolution_rate 	100
scalar Network500.node150 	rate_of_requesters 	1
scalar Network500.node150 	number_of_resources 	27500
scalar Network500.node150 	time_period 	96
scalar Network500.node150 	number_of_messages 	48
scalar Network500.node150 	discovery_latency 	324.00000000001
scalar Network500.node150 	number_of_desired_resources 	20
scalar Network500.node150 	query_homogenity_rate 	33.333333333333
scalar Network500.node150 	qrecord_time 	409845
scalar Network500.node150 	discovery_resolution_rate 	100
scalar Network500.node160 	rate_of_requesters 	1
scalar Network500.node160 	number_of_resources 	27500
scalar Network500.node160 	time_period 	99
scalar Network500.node160 	number_of_messages 	36
scalar Network500.node160 	discovery_latency 	228.00000000001
scalar Network500.node160 	number_of_desired_resources 	20
scalar Network500.node160 	query_homogenity_rate 	33.333333333333
scalar Network500.node160 	qrecord_time 	410313.99999999
scalar Network500.node160 	discovery_resolution_rate 	100
scalar Network500.node50 	rate_of_requesters 	1
scalar Network500.node50 	number_of_resources 	27500
scalar Network500.node50 	time_period 	100
scalar Network500.node50 	number_of_messages 	27
scalar Network500.node50 	discovery_latency 	168.00000000001
scalar Network500.node50 	number_of_desired_resources 	20
scalar Network500.node50 	query_homogenity_rate 	33.333333333333
scalar Network500.node50 	qrecord_time 	410337.99999999
scalar Network500.node50 	discovery_resolution_rate 	100
scalar Network500.node340 	rate_of_requesters 	1
scalar Network500.node340 	number_of_resources 	27500
scalar Network500.node340 	time_period 	100
scalar Network500.node340 	number_of_messages 	27
scalar Network500.node340 	discovery_latency 	185.99999999998
scalar Network500.node340 	number_of_desired_resources 	20
scalar Network500.node340 	query_homogenity_rate 	33.333333333333
scalar Network500.node340 	qrecord_time 	410540
scalar Network500.node340 	discovery_resolution_rate 	100
scalar Network500.node90 	rate_of_requesters 	1
scalar Network500.node90 	number_of_resources 	27500
scalar Network500.node90 	time_period 	99
scalar Network500.node90 	number_of_messages 	37
scalar Network500.node90 	discovery_latency 	287.99999999995
scalar Network500.node90 	number_of_desired_resources 	20
scalar Network500.node90 	query_homogenity_rate 	33.333333333333
scalar Network500.node90 	qrecord_time 	410797
scalar Network500.node90 	discovery_resolution_rate 	100
scalar Network500.node300 	rate_of_requesters 	1
scalar Network500.node300 	number_of_resources 	27500
scalar Network500.node300 	time_period 	100
scalar Network500.node300 	number_of_messages 	23
scalar Network500.node300 	discovery_latency 	167.99999999995
scalar Network500.node300 	number_of_desired_resources 	20
scalar Network500.node300 	query_homogenity_rate 	33.333333333333
scalar Network500.node300 	qrecord_time 	411903.99999999
scalar Network500.node300 	discovery_resolution_rate 	100
scalar Network500.node140 	rate_of_requesters 	1
scalar Network500.node140 	number_of_resources 	27500
scalar Network500.node140 	time_period 	99
scalar Network500.node140 	number_of_messages 	37
scalar Network500.node140 	discovery_latency 	372.00000000001
scalar Network500.node140 	number_of_desired_resources 	20
scalar Network500.node140 	query_homogenity_rate 	33.333333333333
scalar Network500.node140 	qrecord_time 	412160
scalar Network500.node140 	discovery_resolution_rate 	100
scalar Network500.node260 	rate_of_requesters 	1
scalar Network500.node260 	number_of_resources 	27500
scalar Network500.node260 	time_period 	99
scalar Network500.node260 	number_of_messages 	28
scalar Network500.node260 	discovery_latency 	204.00000000001
scalar Network500.node260 	number_of_desired_resources 	20
scalar Network500.node260 	query_homogenity_rate 	33.333333333333
scalar Network500.node260 	qrecord_time 	412273
scalar Network500.node260 	discovery_resolution_rate 	100
scalar Network500.node90 	rate_of_requesters 	1
scalar Network500.node90 	number_of_resources 	27500
scalar Network500.node90 	time_period 	100
scalar Network500.node90 	number_of_messages 	36
scalar Network500.node90 	discovery_latency 	360.00000000001
scalar Network500.node90 	number_of_desired_resources 	20
scalar Network500.node90 	query_homogenity_rate 	33.333333333333
scalar Network500.node90 	qrecord_time 	412889
scalar Network500.node90 	discovery_resolution_rate 	100
scalar Network500.node230 	rate_of_requesters 	1
scalar Network500.node230 	number_of_resources 	27500
scalar Network500.node230 	time_period 	99
scalar Network500.node230 	number_of_messages 	40
scalar Network500.node230 	discovery_latency 	360.00000000001
scalar Network500.node230 	number_of_desired_resources 	20
scalar Network500.node230 	query_homogenity_rate 	33.333333333333
scalar Network500.node230 	qrecord_time 	413174
scalar Network500.node230 	discovery_resolution_rate 	100
scalar Network500.node160 	rate_of_requesters 	1
scalar Network500.node160 	number_of_resources 	27500
scalar Network500.node160 	time_period 	100
scalar Network500.node160 	number_of_messages 	43
scalar Network500.node160 	discovery_latency 	360.00000000001
scalar Network500.node160 	number_of_desired_resources 	20
scalar Network500.node160 	query_homogenity_rate 	33.333333333333
scalar Network500.node160 	qrecord_time 	414833.99999999
scalar Network500.node160 	discovery_resolution_rate 	100
scalar Network500.node260 	rate_of_requesters 	1
scalar Network500.node260 	number_of_resources 	27500
scalar Network500.node260 	time_period 	100
scalar Network500.node260 	number_of_messages 	27
scalar Network500.node260 	discovery_latency 	204.00000000001
scalar Network500.node260 	number_of_desired_resources 	20
scalar Network500.node260 	query_homogenity_rate 	33.333333333333
scalar Network500.node260 	qrecord_time 	415634
scalar Network500.node260 	discovery_resolution_rate 	100
scalar Network500.node150 	rate_of_requesters 	1
scalar Network500.node150 	number_of_resources 	27500
scalar Network500.node150 	time_period 	97
scalar Network500.node150 	number_of_messages 	30
scalar Network500.node150 	discovery_latency 	228.00000000001
scalar Network500.node150 	number_of_desired_resources 	20
scalar Network500.node150 	query_homogenity_rate 	33.333333333333
scalar Network500.node150 	qrecord_time 	415705
scalar Network500.node150 	discovery_resolution_rate 	100
scalar Network500.node230 	rate_of_requesters 	1
scalar Network500.node230 	number_of_resources 	27500
scalar Network500.node230 	time_period 	100
scalar Network500.node230 	number_of_messages 	32
scalar Network500.node230 	discovery_latency 	155.99999999995
scalar Network500.node230 	number_of_desired_resources 	20
scalar Network500.node230 	query_homogenity_rate 	33.333333333333
scalar Network500.node230 	qrecord_time 	416233
scalar Network500.node230 	discovery_resolution_rate 	100
scalar Network500.node140 	rate_of_requesters 	1
scalar Network500.node140 	number_of_resources 	27500
scalar Network500.node140 	time_period 	100
scalar Network500.node140 	number_of_messages 	26
scalar Network500.node140 	discovery_latency 	180.00000000001
scalar Network500.node140 	number_of_desired_resources 	20
scalar Network500.node140 	query_homogenity_rate 	33.333333333333
scalar Network500.node140 	qrecord_time 	417943
scalar Network500.node140 	discovery_resolution_rate 	100
scalar Network500.node150 	rate_of_requesters 	1
scalar Network500.node150 	number_of_resources 	27500
scalar Network500.node150 	time_period 	98
scalar Network500.node150 	number_of_messages 	30
scalar Network500.node150 	discovery_latency 	228.00000000001
scalar Network500.node150 	number_of_desired_resources 	20
scalar Network500.node150 	query_homogenity_rate 	33.333333333333
scalar Network500.node150 	qrecord_time 	421613
scalar Network500.node150 	discovery_resolution_rate 	100
scalar Network500.node150 	rate_of_requesters 	1
scalar Network500.node150 	number_of_resources 	27500
scalar Network500.node150 	time_period 	99
scalar Network500.node150 	number_of_messages 	30
scalar Network500.node150 	discovery_latency 	227.99999999995
scalar Network500.node150 	number_of_desired_resources 	20
scalar Network500.node150 	query_homogenity_rate 	33.333333333333
scalar Network500.node150 	qrecord_time 	424674
scalar Network500.node150 	discovery_resolution_rate 	100
scalar Network500.node150 	rate_of_requesters 	1
scalar Network500.node150 	number_of_resources 	27500
scalar Network500.node150 	time_period 	100
scalar Network500.node150 	number_of_messages 	30
scalar Network500.node150 	discovery_latency 	228.00000000001
scalar Network500.node150 	number_of_desired_resources 	20
scalar Network500.node150 	query_homogenity_rate 	33.333333333333
scalar Network500.node150 	qrecord_time 	428857
scalar Network500.node150 	discovery_resolution_rate 	100
