version 2
run net500-0-20150716-20:42:48-17627
attr as 1
attr configname net500
attr datetime 20150716-20:42:48
attr dnor 20
attr experiment net500
attr inifile omnetpp.ini
attr iterationvars "$rhdrq=3, $dnor=20, $as=1"
attr iterationvars2 "$rhdrq=3, $dnor=20, $as=1, $repetition=0"
attr measurement "$rhdrq=3, $dnor=20, $as=1"
attr network Network500
attr processid 17627
attr repetition 0
attr replication #0
attr resultdir results
attr rhdrq 3
attr runnumber 0
attr seedset 0

scalar . 	as 	1
scalar . 	dnor 	20
scalar . 	rhdrq 	3
scalar Network500.node0 	rate_of_requesters 	1
scalar Network500.node0 	number_of_resources 	27500
scalar Network500.node0 	time_period 	1
scalar Network500.node0 	number_of_messages 	15
scalar Network500.node0 	discovery_latency 	84
scalar Network500.node0 	number_of_desired_resources 	20
scalar Network500.node0 	query_homogenity_rate 	33.333333333333
scalar Network500.node0 	qrecord_time 	4804
scalar Network500.node0 	discovery_resolution_rate 	100
scalar Network500.node170 	rate_of_requesters 	1
scalar Network500.node170 	number_of_resources 	27500
scalar Network500.node170 	time_period 	1
scalar Network500.node170 	number_of_messages 	38
scalar Network500.node170 	discovery_latency 	312
scalar Network500.node170 	number_of_desired_resources 	20
scalar Network500.node170 	query_homogenity_rate 	33.333333333333
scalar Network500.node170 	qrecord_time 	4978
scalar Network500.node170 	discovery_resolution_rate 	100
scalar Network500.node200 	rate_of_requesters 	1
scalar Network500.node200 	number_of_resources 	27500
scalar Network500.node200 	time_period 	1
scalar Network500.node200 	number_of_messages 	31
scalar Network500.node200 	discovery_latency 	216
scalar Network500.node200 	number_of_desired_resources 	20
scalar Network500.node200 	query_homogenity_rate 	33.333333333333
scalar Network500.node200 	qrecord_time 	4984
scalar Network500.node200 	discovery_resolution_rate 	100
scalar Network500.node480 	rate_of_requesters 	1
scalar Network500.node480 	number_of_resources 	27500
scalar Network500.node480 	time_period 	1
scalar Network500.node480 	number_of_messages 	49
scalar Network500.node480 	discovery_latency 	384
scalar Network500.node480 	number_of_desired_resources 	20
scalar Network500.node480 	query_homogenity_rate 	33.333333333333
scalar Network500.node480 	qrecord_time 	5056
scalar Network500.node480 	discovery_resolution_rate 	100
scalar Network500.node370 	rate_of_requesters 	1
scalar Network500.node370 	number_of_resources 	27500
scalar Network500.node370 	time_period 	1
scalar Network500.node370 	number_of_messages 	42
scalar Network500.node370 	discovery_latency 	396
scalar Network500.node370 	number_of_desired_resources 	20
scalar Network500.node370 	query_homogenity_rate 	33.333333333333
scalar Network500.node370 	qrecord_time 	5062
scalar Network500.node370 	discovery_resolution_rate 	100
scalar Network500.node340 	rate_of_requesters 	1
scalar Network500.node340 	number_of_resources 	27500
scalar Network500.node340 	time_period 	1
scalar Network500.node340 	number_of_messages 	69
scalar Network500.node340 	discovery_latency 	666
scalar Network500.node340 	number_of_desired_resources 	20
scalar Network500.node340 	query_homogenity_rate 	33.333333333333
scalar Network500.node340 	qrecord_time 	5380
scalar Network500.node340 	discovery_resolution_rate 	100
scalar Network500.node240 	rate_of_requesters 	1
scalar Network500.node240 	number_of_resources 	27500
scalar Network500.node240 	time_period 	1
scalar Network500.node240 	number_of_messages 	101
scalar Network500.node240 	discovery_latency 	1362
scalar Network500.node240 	number_of_desired_resources 	20
scalar Network500.node240 	query_homogenity_rate 	33.333333333333
scalar Network500.node240 	qrecord_time 	6112
scalar Network500.node240 	discovery_resolution_rate 	100
scalar Network500.node30 	rate_of_requesters 	1
scalar Network500.node30 	number_of_resources 	27500
scalar Network500.node30 	time_period 	1
scalar Network500.node30 	number_of_messages 	45
scalar Network500.node30 	discovery_latency 	2592
scalar Network500.node30 	number_of_desired_resources 	20
scalar Network500.node30 	query_homogenity_rate 	33.333333333333
scalar Network500.node30 	qrecord_time 	7324
scalar Network500.node30 	discovery_resolution_rate 	66.666666666667
scalar Network500.node50 	rate_of_requesters 	1
scalar Network500.node50 	number_of_resources 	27500
scalar Network500.node50 	time_period 	1
scalar Network500.node50 	number_of_messages 	19
scalar Network500.node50 	discovery_latency 	2700
scalar Network500.node50 	number_of_desired_resources 	20
scalar Network500.node50 	query_homogenity_rate 	33.333333333333
scalar Network500.node50 	qrecord_time 	7390
scalar Network500.node50 	discovery_resolution_rate 	66.666666666667
scalar Network500.node190 	rate_of_requesters 	1
scalar Network500.node190 	number_of_resources 	27500
scalar Network500.node190 	time_period 	1
scalar Network500.node190 	number_of_messages 	65
scalar Network500.node190 	discovery_latency 	2700
scalar Network500.node190 	number_of_desired_resources 	20
scalar Network500.node190 	query_homogenity_rate 	33.333333333333
scalar Network500.node190 	qrecord_time 	7432
scalar Network500.node190 	discovery_resolution_rate 	66.666666666667
scalar Network500.node490 	rate_of_requesters 	1
scalar Network500.node490 	number_of_resources 	27500
scalar Network500.node490 	time_period 	1
scalar Network500.node490 	number_of_messages 	168
scalar Network500.node490 	discovery_latency 	2712
scalar Network500.node490 	number_of_desired_resources 	20
scalar Network500.node490 	query_homogenity_rate 	33.333333333333
scalar Network500.node490 	qrecord_time 	7462
scalar Network500.node490 	discovery_resolution_rate 	83.333333333333
scalar Network500.node320 	rate_of_requesters 	1
scalar Network500.node320 	number_of_resources 	27500
scalar Network500.node320 	time_period 	1
scalar Network500.node320 	number_of_messages 	34
scalar Network500.node320 	discovery_latency 	2748
scalar Network500.node320 	number_of_desired_resources 	20
scalar Network500.node320 	query_homogenity_rate 	33.333333333333
scalar Network500.node320 	qrecord_time 	7462
scalar Network500.node320 	discovery_resolution_rate 	66.666666666667
scalar Network500.node400 	rate_of_requesters 	1
scalar Network500.node400 	number_of_resources 	27500
scalar Network500.node400 	time_period 	1
scalar Network500.node400 	number_of_messages 	19
scalar Network500.node400 	discovery_latency 	2736
scalar Network500.node400 	number_of_desired_resources 	20
scalar Network500.node400 	query_homogenity_rate 	33.333333333333
scalar Network500.node400 	qrecord_time 	7468
scalar Network500.node400 	discovery_resolution_rate 	66.666666666667
scalar Network500.node390 	rate_of_requesters 	1
scalar Network500.node390 	number_of_resources 	27500
scalar Network500.node390 	time_period 	1
scalar Network500.node390 	number_of_messages 	19
scalar Network500.node390 	discovery_latency 	2784
scalar Network500.node390 	number_of_desired_resources 	20
scalar Network500.node390 	query_homogenity_rate 	33.333333333333
scalar Network500.node390 	qrecord_time 	7558
scalar Network500.node390 	discovery_resolution_rate 	66.666666666667
scalar Network500.node310 	rate_of_requesters 	1
scalar Network500.node310 	number_of_resources 	27500
scalar Network500.node310 	time_period 	1
scalar Network500.node310 	number_of_messages 	35
scalar Network500.node310 	discovery_latency 	2874
scalar Network500.node310 	number_of_desired_resources 	20
scalar Network500.node310 	query_homogenity_rate 	33.333333333333
scalar Network500.node310 	qrecord_time 	7600
scalar Network500.node310 	discovery_resolution_rate 	66.666666666667
scalar Network500.node70 	rate_of_requesters 	1
scalar Network500.node70 	number_of_resources 	27500
scalar Network500.node70 	time_period 	1
scalar Network500.node70 	number_of_messages 	17
scalar Network500.node70 	discovery_latency 	2934
scalar Network500.node70 	number_of_desired_resources 	20
scalar Network500.node70 	query_homogenity_rate 	33.333333333333
scalar Network500.node70 	qrecord_time 	7648
scalar Network500.node70 	discovery_resolution_rate 	33.333333333333
scalar Network500.node210 	rate_of_requesters 	1
scalar Network500.node210 	number_of_resources 	27500
scalar Network500.node210 	time_period 	1
scalar Network500.node210 	number_of_messages 	29
scalar Network500.node210 	discovery_latency 	2982
scalar Network500.node210 	number_of_desired_resources 	20
scalar Network500.node210 	query_homogenity_rate 	33.333333333333
scalar Network500.node210 	qrecord_time 	7648
scalar Network500.node210 	discovery_resolution_rate 	66.666666666667
scalar Network500.node60 	rate_of_requesters 	1
scalar Network500.node60 	number_of_resources 	27500
scalar Network500.node60 	time_period 	1
scalar Network500.node60 	number_of_messages 	174
scalar Network500.node60 	discovery_latency 	2994
scalar Network500.node60 	number_of_desired_resources 	20
scalar Network500.node60 	query_homogenity_rate 	33.333333333333
scalar Network500.node60 	qrecord_time 	7660
scalar Network500.node60 	discovery_resolution_rate 	83.333333333333
scalar Network500.node290 	rate_of_requesters 	1
scalar Network500.node290 	number_of_resources 	27500
scalar Network500.node290 	time_period 	1
scalar Network500.node290 	number_of_messages 	16
scalar Network500.node290 	discovery_latency 	2934
scalar Network500.node290 	number_of_desired_resources 	20
scalar Network500.node290 	query_homogenity_rate 	33.333333333333
scalar Network500.node290 	qrecord_time 	7660
scalar Network500.node290 	discovery_resolution_rate 	66.666666666667
scalar Network500.node250 	rate_of_requesters 	1
scalar Network500.node250 	number_of_resources 	27500
scalar Network500.node250 	time_period 	1
scalar Network500.node250 	number_of_messages 	12
scalar Network500.node250 	discovery_latency 	2910
scalar Network500.node250 	number_of_desired_resources 	20
scalar Network500.node250 	query_homogenity_rate 	33.333333333333
scalar Network500.node250 	qrecord_time 	7684
scalar Network500.node250 	discovery_resolution_rate 	33.333333333333
scalar Network500.node460 	rate_of_requesters 	1
scalar Network500.node460 	number_of_resources 	27500
scalar Network500.node460 	time_period 	1
scalar Network500.node460 	number_of_messages 	7
scalar Network500.node460 	discovery_latency 	2958
scalar Network500.node460 	number_of_desired_resources 	20
scalar Network500.node460 	query_homogenity_rate 	33.333333333333
scalar Network500.node460 	qrecord_time 	7690
scalar Network500.node460 	discovery_resolution_rate 	33.333333333333
scalar Network500.node330 	rate_of_requesters 	1
scalar Network500.node330 	number_of_resources 	27500
scalar Network500.node330 	time_period 	1
scalar Network500.node330 	number_of_messages 	38
scalar Network500.node330 	discovery_latency 	2982
scalar Network500.node330 	number_of_desired_resources 	20
scalar Network500.node330 	query_homogenity_rate 	33.333333333333
scalar Network500.node330 	qrecord_time 	7714
scalar Network500.node330 	discovery_resolution_rate 	33.333333333333
scalar Network500.node80 	rate_of_requesters 	1
scalar Network500.node80 	number_of_resources 	27500
scalar Network500.node80 	time_period 	1
scalar Network500.node80 	number_of_messages 	12
scalar Network500.node80 	discovery_latency 	2958
scalar Network500.node80 	number_of_desired_resources 	20
scalar Network500.node80 	query_homogenity_rate 	33.333333333333
scalar Network500.node80 	qrecord_time 	7714
scalar Network500.node80 	discovery_resolution_rate 	66.666666666667
scalar Network500.node150 	rate_of_requesters 	1
scalar Network500.node150 	number_of_resources 	27500
scalar Network500.node150 	time_period 	1
scalar Network500.node150 	number_of_messages 	158
scalar Network500.node150 	discovery_latency 	2982
scalar Network500.node150 	number_of_desired_resources 	20
scalar Network500.node150 	query_homogenity_rate 	33.333333333333
scalar Network500.node150 	qrecord_time 	7720
scalar Network500.node150 	discovery_resolution_rate 	50
scalar Network500.node20 	rate_of_requesters 	1
scalar Network500.node20 	number_of_resources 	27500
scalar Network500.node20 	time_period 	1
scalar Network500.node20 	number_of_messages 	14
scalar Network500.node20 	discovery_latency 	3006
scalar Network500.node20 	number_of_desired_resources 	20
scalar Network500.node20 	query_homogenity_rate 	33.333333333333
scalar Network500.node20 	qrecord_time 	7720
scalar Network500.node20 	discovery_resolution_rate 	33.333333333333
scalar Network500.node130 	rate_of_requesters 	1
scalar Network500.node130 	number_of_resources 	27500
scalar Network500.node130 	time_period 	1
scalar Network500.node130 	number_of_messages 	45
scalar Network500.node130 	discovery_latency 	3006
scalar Network500.node130 	number_of_desired_resources 	20
scalar Network500.node130 	query_homogenity_rate 	33.333333333333
scalar Network500.node130 	qrecord_time 	7720
scalar Network500.node130 	discovery_resolution_rate 	33.333333333333
scalar Network500.node420 	rate_of_requesters 	1
scalar Network500.node420 	number_of_resources 	27500
scalar Network500.node420 	time_period 	1
scalar Network500.node420 	number_of_messages 	26
scalar Network500.node420 	discovery_latency 	2970
scalar Network500.node420 	number_of_desired_resources 	20
scalar Network500.node420 	query_homogenity_rate 	33.333333333333
scalar Network500.node420 	qrecord_time 	7726
scalar Network500.node420 	discovery_resolution_rate 	33.333333333333
scalar Network500.node470 	rate_of_requesters 	1
scalar Network500.node470 	number_of_resources 	27500
scalar Network500.node470 	time_period 	1
scalar Network500.node470 	number_of_messages 	3
scalar Network500.node470 	discovery_latency 	3030
scalar Network500.node470 	number_of_desired_resources 	20
scalar Network500.node470 	query_homogenity_rate 	33.333333333333
scalar Network500.node470 	qrecord_time 	7726
scalar Network500.node470 	discovery_resolution_rate 	33.333333333333
scalar Network500.node260 	rate_of_requesters 	1
scalar Network500.node260 	number_of_resources 	27500
scalar Network500.node260 	time_period 	1
scalar Network500.node260 	number_of_messages 	75
scalar Network500.node260 	discovery_latency 	2970
scalar Network500.node260 	number_of_desired_resources 	20
scalar Network500.node260 	query_homogenity_rate 	33.333333333333
scalar Network500.node260 	qrecord_time 	7738
scalar Network500.node260 	discovery_resolution_rate 	33.333333333333
scalar Network500.node410 	rate_of_requesters 	1
scalar Network500.node410 	number_of_resources 	27500
scalar Network500.node410 	time_period 	1
scalar Network500.node410 	number_of_messages 	8
scalar Network500.node410 	discovery_latency 	2946
scalar Network500.node410 	number_of_desired_resources 	20
scalar Network500.node410 	query_homogenity_rate 	33.333333333333
scalar Network500.node410 	qrecord_time 	7738
scalar Network500.node410 	discovery_resolution_rate 	33.333333333333
scalar Network500.node40 	rate_of_requesters 	1
scalar Network500.node40 	number_of_resources 	27500
scalar Network500.node40 	time_period 	1
scalar Network500.node40 	number_of_messages 	24
scalar Network500.node40 	discovery_latency 	3030
scalar Network500.node40 	number_of_desired_resources 	20
scalar Network500.node40 	query_homogenity_rate 	33.333333333333
scalar Network500.node40 	qrecord_time 	7744
scalar Network500.node40 	discovery_resolution_rate 	66.666666666667
scalar Network500.node100 	rate_of_requesters 	1
scalar Network500.node100 	number_of_resources 	27500
scalar Network500.node100 	time_period 	1
scalar Network500.node100 	number_of_messages 	5
scalar Network500.node100 	discovery_latency 	3066
scalar Network500.node100 	number_of_desired_resources 	20
scalar Network500.node100 	query_homogenity_rate 	33.333333333333
scalar Network500.node100 	qrecord_time 	7750
scalar Network500.node100 	discovery_resolution_rate 	33.333333333333
scalar Network500.node90 	rate_of_requesters 	1
scalar Network500.node90 	number_of_resources 	27500
scalar Network500.node90 	time_period 	1
scalar Network500.node90 	number_of_messages 	12
scalar Network500.node90 	discovery_latency 	3042
scalar Network500.node90 	number_of_desired_resources 	20
scalar Network500.node90 	query_homogenity_rate 	33.333333333333
scalar Network500.node90 	qrecord_time 	7756
scalar Network500.node90 	discovery_resolution_rate 	33.333333333333
scalar Network500.node120 	rate_of_requesters 	1
scalar Network500.node120 	number_of_resources 	27500
scalar Network500.node120 	time_period 	1
scalar Network500.node120 	number_of_messages 	5
scalar Network500.node120 	discovery_latency 	3030
scalar Network500.node120 	number_of_desired_resources 	20
scalar Network500.node120 	query_homogenity_rate 	33.333333333333
scalar Network500.node120 	qrecord_time 	7762
scalar Network500.node120 	discovery_resolution_rate 	33.333333333333
scalar Network500.node10 	rate_of_requesters 	1
scalar Network500.node10 	number_of_resources 	27500
scalar Network500.node10 	time_period 	1
scalar Network500.node10 	number_of_messages 	25
scalar Network500.node10 	discovery_latency 	3054
scalar Network500.node10 	number_of_desired_resources 	20
scalar Network500.node10 	query_homogenity_rate 	33.333333333333
scalar Network500.node10 	qrecord_time 	7768
scalar Network500.node10 	discovery_resolution_rate 	66.666666666667
scalar Network500.node160 	rate_of_requesters 	1
scalar Network500.node160 	number_of_resources 	27500
scalar Network500.node160 	time_period 	1
scalar Network500.node160 	number_of_messages 	5
scalar Network500.node160 	discovery_latency 	3018
scalar Network500.node160 	number_of_desired_resources 	20
scalar Network500.node160 	query_homogenity_rate 	33.333333333333
scalar Network500.node160 	qrecord_time 	7774
scalar Network500.node160 	discovery_resolution_rate 	33.333333333333
scalar Network500.node140 	rate_of_requesters 	1
scalar Network500.node140 	number_of_resources 	27500
scalar Network500.node140 	time_period 	2
scalar Network500.node140 	number_of_messages 	42
scalar Network500.node140 	discovery_latency 	2874
scalar Network500.node140 	number_of_desired_resources 	20
scalar Network500.node140 	query_homogenity_rate 	33.333333333333
scalar Network500.node140 	qrecord_time 	7777.644679999
scalar Network500.node140 	discovery_resolution_rate 	66.666666666667
scalar Network500.node270 	rate_of_requesters 	1
scalar Network500.node270 	number_of_resources 	27500
scalar Network500.node270 	time_period 	1
scalar Network500.node270 	number_of_messages 	7
scalar Network500.node270 	discovery_latency 	3090
scalar Network500.node270 	number_of_desired_resources 	20
scalar Network500.node270 	query_homogenity_rate 	33.333333333333
scalar Network500.node270 	qrecord_time 	7780
scalar Network500.node270 	discovery_resolution_rate 	33.333333333333
scalar Network500.node440 	rate_of_requesters 	1
scalar Network500.node440 	number_of_resources 	27500
scalar Network500.node440 	time_period 	1
scalar Network500.node440 	number_of_messages 	15
scalar Network500.node440 	discovery_latency 	3066
scalar Network500.node440 	number_of_desired_resources 	20
scalar Network500.node440 	query_homogenity_rate 	33.333333333333
scalar Network500.node440 	qrecord_time 	7780
scalar Network500.node440 	discovery_resolution_rate 	33.333333333333
scalar Network500.node80 	rate_of_requesters 	1
scalar Network500.node80 	number_of_resources 	27500
scalar Network500.node80 	time_period 	2
scalar Network500.node80 	number_of_messages 	6
scalar Network500.node80 	discovery_latency 	3018
scalar Network500.node80 	number_of_desired_resources 	20
scalar Network500.node80 	query_homogenity_rate 	33.333333333333
scalar Network500.node80 	qrecord_time 	7780.66293619
scalar Network500.node80 	discovery_resolution_rate 	33.333333333333
scalar Network500.node450 	rate_of_requesters 	1
scalar Network500.node450 	number_of_resources 	27500
scalar Network500.node450 	time_period 	1
scalar Network500.node450 	number_of_messages 	39
scalar Network500.node450 	discovery_latency 	3042
scalar Network500.node450 	number_of_desired_resources 	20
scalar Network500.node450 	query_homogenity_rate 	33.333333333333
scalar Network500.node450 	qrecord_time 	7792
scalar Network500.node450 	discovery_resolution_rate 	33.333333333333
scalar Network500.node140 	rate_of_requesters 	1
scalar Network500.node140 	number_of_resources 	27500
scalar Network500.node140 	time_period 	1
scalar Network500.node140 	number_of_messages 	12
scalar Network500.node140 	discovery_latency 	3042
scalar Network500.node140 	number_of_desired_resources 	20
scalar Network500.node140 	query_homogenity_rate 	33.333333333333
scalar Network500.node140 	qrecord_time 	7792
scalar Network500.node140 	discovery_resolution_rate 	33.333333333333
scalar Network500.node230 	rate_of_requesters 	1
scalar Network500.node230 	number_of_resources 	27500
scalar Network500.node230 	time_period 	1
scalar Network500.node230 	number_of_messages 	2
scalar Network500.node230 	discovery_latency 	3018
scalar Network500.node230 	number_of_desired_resources 	20
scalar Network500.node230 	query_homogenity_rate 	33.333333333333
scalar Network500.node230 	qrecord_time 	7792
scalar Network500.node230 	discovery_resolution_rate 	0
scalar Network500.node220 	rate_of_requesters 	1
scalar Network500.node220 	number_of_resources 	27500
scalar Network500.node220 	time_period 	1
scalar Network500.node220 	number_of_messages 	78
scalar Network500.node220 	discovery_latency 	2982
scalar Network500.node220 	number_of_desired_resources 	20
scalar Network500.node220 	query_homogenity_rate 	33.333333333333
scalar Network500.node220 	qrecord_time 	7792
scalar Network500.node220 	discovery_resolution_rate 	33.333333333333
scalar Network500.node430 	rate_of_requesters 	1
scalar Network500.node430 	number_of_resources 	27500
scalar Network500.node430 	time_period 	1
scalar Network500.node430 	number_of_messages 	16
scalar Network500.node430 	discovery_latency 	3030
scalar Network500.node430 	number_of_desired_resources 	20
scalar Network500.node430 	query_homogenity_rate 	33.333333333333
scalar Network500.node430 	qrecord_time 	7822
scalar Network500.node430 	discovery_resolution_rate 	33.333333333333
scalar Network500.node110 	rate_of_requesters 	1
scalar Network500.node110 	number_of_resources 	27500
scalar Network500.node110 	time_period 	1
scalar Network500.node110 	number_of_messages 	12
scalar Network500.node110 	discovery_latency 	3078
scalar Network500.node110 	number_of_desired_resources 	20
scalar Network500.node110 	query_homogenity_rate 	33.333333333333
scalar Network500.node110 	qrecord_time 	7828
scalar Network500.node110 	discovery_resolution_rate 	33.333333333333
scalar Network500.node180 	rate_of_requesters 	1
scalar Network500.node180 	number_of_resources 	27500
scalar Network500.node180 	time_period 	1
scalar Network500.node180 	number_of_messages 	152
scalar Network500.node180 	discovery_latency 	2970
scalar Network500.node180 	number_of_desired_resources 	20
scalar Network500.node180 	query_homogenity_rate 	33.333333333333
scalar Network500.node180 	qrecord_time 	7828
scalar Network500.node180 	discovery_resolution_rate 	16.666666666667
scalar Network500.node280 	rate_of_requesters 	1
scalar Network500.node280 	number_of_resources 	27500
scalar Network500.node280 	time_period 	1
scalar Network500.node280 	number_of_messages 	13
scalar Network500.node280 	discovery_latency 	3114
scalar Network500.node280 	number_of_desired_resources 	20
scalar Network500.node280 	query_homogenity_rate 	33.333333333333
scalar Network500.node280 	qrecord_time 	7834
scalar Network500.node280 	discovery_resolution_rate 	33.333333333333
scalar Network500.node350 	rate_of_requesters 	1
scalar Network500.node350 	number_of_resources 	27500
scalar Network500.node350 	time_period 	1
scalar Network500.node350 	number_of_messages 	2
scalar Network500.node350 	discovery_latency 	3030
scalar Network500.node350 	number_of_desired_resources 	20
scalar Network500.node350 	query_homogenity_rate 	33.333333333333
scalar Network500.node350 	qrecord_time 	7840
scalar Network500.node350 	discovery_resolution_rate 	0
scalar Network500.node300 	rate_of_requesters 	1
scalar Network500.node300 	number_of_resources 	27500
scalar Network500.node300 	time_period 	1
scalar Network500.node300 	number_of_messages 	2
scalar Network500.node300 	discovery_latency 	3054
scalar Network500.node300 	number_of_desired_resources 	20
scalar Network500.node300 	query_homogenity_rate 	33.333333333333
scalar Network500.node300 	qrecord_time 	7840
scalar Network500.node300 	discovery_resolution_rate 	0
scalar Network500.node10 	rate_of_requesters 	1
scalar Network500.node10 	number_of_resources 	27500
scalar Network500.node10 	time_period 	2
scalar Network500.node10 	number_of_messages 	139
scalar Network500.node10 	discovery_latency 	3018
scalar Network500.node10 	number_of_desired_resources 	20
scalar Network500.node10 	query_homogenity_rate 	33.333333333333
scalar Network500.node10 	qrecord_time 	7858.736482879
scalar Network500.node10 	discovery_resolution_rate 	16.666666666667
scalar Network500.node360 	rate_of_requesters 	1
scalar Network500.node360 	number_of_resources 	27500
scalar Network500.node360 	time_period 	1
scalar Network500.node360 	number_of_messages 	2
scalar Network500.node360 	discovery_latency 	3114
scalar Network500.node360 	number_of_desired_resources 	20
scalar Network500.node360 	query_homogenity_rate 	33.333333333333
scalar Network500.node360 	qrecord_time 	7924
scalar Network500.node360 	discovery_resolution_rate 	0
scalar Network500.node380 	rate_of_requesters 	1
scalar Network500.node380 	number_of_resources 	27500
scalar Network500.node380 	time_period 	1
scalar Network500.node380 	number_of_messages 	2
scalar Network500.node380 	discovery_latency 	3114
scalar Network500.node380 	number_of_desired_resources 	20
scalar Network500.node380 	query_homogenity_rate 	33.333333333333
scalar Network500.node380 	qrecord_time 	7924
scalar Network500.node380 	discovery_resolution_rate 	0
scalar Network500.node220 	rate_of_requesters 	1
scalar Network500.node220 	number_of_resources 	27500
scalar Network500.node220 	time_period 	2
scalar Network500.node220 	number_of_messages 	72
scalar Network500.node220 	discovery_latency 	3006
scalar Network500.node220 	number_of_desired_resources 	20
scalar Network500.node220 	query_homogenity_rate 	33.333333333333
scalar Network500.node220 	qrecord_time 	7987.149804585
scalar Network500.node220 	discovery_resolution_rate 	33.333333333333
scalar Network500.node230 	rate_of_requesters 	1
scalar Network500.node230 	number_of_resources 	27500
scalar Network500.node230 	time_period 	2
scalar Network500.node230 	number_of_messages 	48
scalar Network500.node230 	discovery_latency 	2910
scalar Network500.node230 	number_of_desired_resources 	20
scalar Network500.node230 	query_homogenity_rate 	33.333333333333
scalar Network500.node230 	qrecord_time 	8109.309614607
scalar Network500.node230 	discovery_resolution_rate 	33.333333333333
scalar Network500.node50 	rate_of_requesters 	1
scalar Network500.node50 	number_of_resources 	27500
scalar Network500.node50 	time_period 	2
scalar Network500.node50 	number_of_messages 	2
scalar Network500.node50 	discovery_latency 	3042
scalar Network500.node50 	number_of_desired_resources 	20
scalar Network500.node50 	query_homogenity_rate 	33.333333333333
scalar Network500.node50 	qrecord_time 	8115.989101493
scalar Network500.node50 	discovery_resolution_rate 	0
scalar Network500.node240 	rate_of_requesters 	1
scalar Network500.node240 	number_of_resources 	27500
scalar Network500.node240 	time_period 	2
scalar Network500.node240 	number_of_messages 	2
scalar Network500.node240 	discovery_latency 	3066
scalar Network500.node240 	number_of_desired_resources 	20
scalar Network500.node240 	query_homogenity_rate 	33.333333333333
scalar Network500.node240 	qrecord_time 	8141.769087672
scalar Network500.node240 	discovery_resolution_rate 	0
scalar Network500.node360 	rate_of_requesters 	1
scalar Network500.node360 	number_of_resources 	27500
scalar Network500.node360 	time_period 	2
scalar Network500.node360 	number_of_messages 	2
scalar Network500.node360 	discovery_latency 	2982
scalar Network500.node360 	number_of_desired_resources 	20
scalar Network500.node360 	query_homogenity_rate 	33.333333333333
scalar Network500.node360 	qrecord_time 	8287.193684487
scalar Network500.node360 	discovery_resolution_rate 	0
scalar Network500.node320 	rate_of_requesters 	1
scalar Network500.node320 	number_of_resources 	27500
scalar Network500.node320 	time_period 	2
scalar Network500.node320 	number_of_messages 	2
scalar Network500.node320 	discovery_latency 	2874
scalar Network500.node320 	number_of_desired_resources 	20
scalar Network500.node320 	query_homogenity_rate 	33.333333333333
scalar Network500.node320 	qrecord_time 	8320.257060782
scalar Network500.node320 	discovery_resolution_rate 	0
scalar Network500.node20 	rate_of_requesters 	1
scalar Network500.node20 	number_of_resources 	27500
scalar Network500.node20 	time_period 	2
scalar Network500.node20 	number_of_messages 	33
scalar Network500.node20 	discovery_latency 	2898
scalar Network500.node20 	number_of_desired_resources 	20
scalar Network500.node20 	query_homogenity_rate 	33.333333333333
scalar Network500.node20 	qrecord_time 	8320.991731301
scalar Network500.node20 	discovery_resolution_rate 	33.333333333333
scalar Network500.node50 	rate_of_requesters 	1
scalar Network500.node50 	number_of_resources 	27500
scalar Network500.node50 	time_period 	3
scalar Network500.node50 	number_of_messages 	2
scalar Network500.node50 	discovery_latency 	2958
scalar Network500.node50 	number_of_desired_resources 	20
scalar Network500.node50 	query_homogenity_rate 	33.333333333333
scalar Network500.node50 	qrecord_time 	8335.361685468
scalar Network500.node50 	discovery_resolution_rate 	0
scalar Network500.node190 	rate_of_requesters 	1
scalar Network500.node190 	number_of_resources 	27500
scalar Network500.node190 	time_period 	2
scalar Network500.node190 	number_of_messages 	2
scalar Network500.node190 	discovery_latency 	3030
scalar Network500.node190 	number_of_desired_resources 	20
scalar Network500.node190 	query_homogenity_rate 	33.333333333333
scalar Network500.node190 	qrecord_time 	8366.496543832
scalar Network500.node190 	discovery_resolution_rate 	0
scalar Network500.node430 	rate_of_requesters 	1
scalar Network500.node430 	number_of_resources 	27500
scalar Network500.node430 	time_period 	2
scalar Network500.node430 	number_of_messages 	2
scalar Network500.node430 	discovery_latency 	2886
scalar Network500.node430 	number_of_desired_resources 	20
scalar Network500.node430 	query_homogenity_rate 	33.333333333333
scalar Network500.node430 	qrecord_time 	8401.241550395
scalar Network500.node430 	discovery_resolution_rate 	0
scalar Network500.node280 	rate_of_requesters 	1
scalar Network500.node280 	number_of_resources 	27500
scalar Network500.node280 	time_period 	2
scalar Network500.node280 	number_of_messages 	0
scalar Network500.node280 	discovery_latency 	2982
scalar Network500.node280 	number_of_desired_resources 	20
scalar Network500.node280 	query_homogenity_rate 	33.333333333333
scalar Network500.node280 	qrecord_time 	8517.104477332
scalar Network500.node280 	discovery_resolution_rate 	0
scalar Network500.node50 	rate_of_requesters 	1
scalar Network500.node50 	number_of_resources 	27500
scalar Network500.node50 	time_period 	4
scalar Network500.node50 	number_of_messages 	2
scalar Network500.node50 	discovery_latency 	2982
scalar Network500.node50 	number_of_desired_resources 	20
scalar Network500.node50 	query_homogenity_rate 	33.333333333333
scalar Network500.node50 	qrecord_time 	8722.618287255
scalar Network500.node50 	discovery_resolution_rate 	0
scalar Network500.node280 	rate_of_requesters 	1
scalar Network500.node280 	number_of_resources 	27500
scalar Network500.node280 	time_period 	3
scalar Network500.node280 	number_of_messages 	37
scalar Network500.node280 	discovery_latency 	2910
scalar Network500.node280 	number_of_desired_resources 	20
scalar Network500.node280 	query_homogenity_rate 	33.333333333333
scalar Network500.node280 	qrecord_time 	8766.713936211
scalar Network500.node280 	discovery_resolution_rate 	33.333333333333
scalar Network500.node370 	rate_of_requesters 	1
scalar Network500.node370 	number_of_resources 	27500
scalar Network500.node370 	time_period 	2
scalar Network500.node370 	number_of_messages 	2
scalar Network500.node370 	discovery_latency 	3006
scalar Network500.node370 	number_of_desired_resources 	20
scalar Network500.node370 	query_homogenity_rate 	33.333333333333
scalar Network500.node370 	qrecord_time 	8824.62760184
scalar Network500.node370 	discovery_resolution_rate 	0
scalar Network500.node20 	rate_of_requesters 	1
scalar Network500.node20 	number_of_resources 	27500
scalar Network500.node20 	time_period 	3
scalar Network500.node20 	number_of_messages 	80
scalar Network500.node20 	discovery_latency 	630
scalar Network500.node20 	number_of_desired_resources 	20
scalar Network500.node20 	query_homogenity_rate 	33.333333333333
scalar Network500.node20 	qrecord_time 	8877.030420407
scalar Network500.node20 	discovery_resolution_rate 	100
scalar Network500.node150 	rate_of_requesters 	1
scalar Network500.node150 	number_of_resources 	27500
scalar Network500.node150 	time_period 	2
scalar Network500.node150 	number_of_messages 	2
scalar Network500.node150 	discovery_latency 	3018
scalar Network500.node150 	number_of_desired_resources 	20
scalar Network500.node150 	query_homogenity_rate 	33.333333333333
scalar Network500.node150 	qrecord_time 	8921.253132569
scalar Network500.node150 	discovery_resolution_rate 	0
scalar Network500.node230 	rate_of_requesters 	1
scalar Network500.node230 	number_of_resources 	27500
scalar Network500.node230 	time_period 	3
scalar Network500.node230 	number_of_messages 	2
scalar Network500.node230 	discovery_latency 	3006
scalar Network500.node230 	number_of_desired_resources 	20
scalar Network500.node230 	query_homogenity_rate 	33.333333333333
scalar Network500.node230 	qrecord_time 	8964.759205873
scalar Network500.node230 	discovery_resolution_rate 	0
scalar Network500.node370 	rate_of_requesters 	1
scalar Network500.node370 	number_of_resources 	27500
scalar Network500.node370 	time_period 	3
scalar Network500.node370 	number_of_messages 	2
scalar Network500.node370 	discovery_latency 	2946
scalar Network500.node370 	number_of_desired_resources 	20
scalar Network500.node370 	query_homogenity_rate 	33.333333333333
scalar Network500.node370 	qrecord_time 	9070.908439954
scalar Network500.node370 	discovery_resolution_rate 	0
scalar Network500.node330 	rate_of_requesters 	1
scalar Network500.node330 	number_of_resources 	27500
scalar Network500.node330 	time_period 	2
scalar Network500.node330 	number_of_messages 	13
scalar Network500.node330 	discovery_latency 	2946
scalar Network500.node330 	number_of_desired_resources 	20
scalar Network500.node330 	query_homogenity_rate 	33.333333333333
scalar Network500.node330 	qrecord_time 	9157.147735761
scalar Network500.node330 	discovery_resolution_rate 	66.666666666667
scalar Network500.node140 	rate_of_requesters 	1
scalar Network500.node140 	number_of_resources 	27500
scalar Network500.node140 	time_period 	3
scalar Network500.node140 	number_of_messages 	2
scalar Network500.node140 	discovery_latency 	2910
scalar Network500.node140 	number_of_desired_resources 	20
scalar Network500.node140 	query_homogenity_rate 	33.333333333333
scalar Network500.node140 	qrecord_time 	9190.181059581
scalar Network500.node140 	discovery_resolution_rate 	0
scalar Network500.node310 	rate_of_requesters 	1
scalar Network500.node310 	number_of_resources 	27500
scalar Network500.node310 	time_period 	2
scalar Network500.node310 	number_of_messages 	122
scalar Network500.node310 	discovery_latency 	3066
scalar Network500.node310 	number_of_desired_resources 	20
scalar Network500.node310 	query_homogenity_rate 	33.333333333333
scalar Network500.node310 	qrecord_time 	9263.861917605
scalar Network500.node310 	discovery_resolution_rate 	33.333333333333
scalar Network500.node250 	rate_of_requesters 	1
scalar Network500.node250 	number_of_resources 	27500
scalar Network500.node250 	time_period 	2
scalar Network500.node250 	number_of_messages 	2
scalar Network500.node250 	discovery_latency 	3018
scalar Network500.node250 	number_of_desired_resources 	20
scalar Network500.node250 	query_homogenity_rate 	33.333333333333
scalar Network500.node250 	qrecord_time 	9325.111890179
scalar Network500.node250 	discovery_resolution_rate 	0
scalar Network500.node460 	rate_of_requesters 	1
scalar Network500.node460 	number_of_resources 	27500
scalar Network500.node460 	time_period 	2
scalar Network500.node460 	number_of_messages 	2
scalar Network500.node460 	discovery_latency 	3042
scalar Network500.node460 	number_of_desired_resources 	20
scalar Network500.node460 	query_homogenity_rate 	33.333333333333
scalar Network500.node460 	qrecord_time 	9329.318607309
scalar Network500.node460 	discovery_resolution_rate 	0
scalar Network500.node0 	rate_of_requesters 	1
scalar Network500.node0 	number_of_resources 	27500
scalar Network500.node0 	time_period 	2
scalar Network500.node0 	number_of_messages 	0
scalar Network500.node0 	discovery_latency 	3030
scalar Network500.node0 	number_of_desired_resources 	20
scalar Network500.node0 	query_homogenity_rate 	33.333333333333
scalar Network500.node0 	qrecord_time 	9335.902197249
scalar Network500.node0 	discovery_resolution_rate 	0
scalar Network500.node420 	rate_of_requesters 	1
scalar Network500.node420 	number_of_resources 	27500
scalar Network500.node420 	time_period 	2
scalar Network500.node420 	number_of_messages 	2
scalar Network500.node420 	discovery_latency 	3018
scalar Network500.node420 	number_of_desired_resources 	20
scalar Network500.node420 	query_homogenity_rate 	33.333333333333
scalar Network500.node420 	qrecord_time 	9349.601314807
scalar Network500.node420 	discovery_resolution_rate 	0
scalar Network500.node30 	rate_of_requesters 	1
scalar Network500.node30 	number_of_resources 	27500
scalar Network500.node30 	time_period 	2
scalar Network500.node30 	number_of_messages 	2
scalar Network500.node30 	discovery_latency 	3006
scalar Network500.node30 	number_of_desired_resources 	20
scalar Network500.node30 	query_homogenity_rate 	33.333333333333
scalar Network500.node30 	qrecord_time 	9361.280014321
scalar Network500.node30 	discovery_resolution_rate 	0
scalar Network500.node110 	rate_of_requesters 	1
scalar Network500.node110 	number_of_resources 	27500
scalar Network500.node110 	time_period 	2
scalar Network500.node110 	number_of_messages 	2
scalar Network500.node110 	discovery_latency 	2982
scalar Network500.node110 	number_of_desired_resources 	20
scalar Network500.node110 	query_homogenity_rate 	33.333333333333
scalar Network500.node110 	qrecord_time 	9364.493297505
scalar Network500.node110 	discovery_resolution_rate 	0
scalar Network500.node230 	rate_of_requesters 	1
scalar Network500.node230 	number_of_resources 	27500
scalar Network500.node230 	time_period 	4
scalar Network500.node230 	number_of_messages 	23
scalar Network500.node230 	discovery_latency 	2982
scalar Network500.node230 	number_of_desired_resources 	20
scalar Network500.node230 	query_homogenity_rate 	33.333333333333
scalar Network500.node230 	qrecord_time 	9372.24682062
scalar Network500.node230 	discovery_resolution_rate 	33.333333333333
scalar Network500.node120 	rate_of_requesters 	1
scalar Network500.node120 	number_of_resources 	27500
scalar Network500.node120 	time_period 	2
scalar Network500.node120 	number_of_messages 	14
scalar Network500.node120 	discovery_latency 	3018
scalar Network500.node120 	number_of_desired_resources 	20
scalar Network500.node120 	query_homogenity_rate 	33.333333333333
scalar Network500.node120 	qrecord_time 	9499.844317008
scalar Network500.node120 	discovery_resolution_rate 	33.333333333333
scalar Network500.node110 	rate_of_requesters 	1
scalar Network500.node110 	number_of_resources 	27500
scalar Network500.node110 	time_period 	3
scalar Network500.node110 	number_of_messages 	12
scalar Network500.node110 	discovery_latency 	3018
scalar Network500.node110 	number_of_desired_resources 	20
scalar Network500.node110 	query_homogenity_rate 	33.333333333333
scalar Network500.node110 	qrecord_time 	9518.732496314
scalar Network500.node110 	discovery_resolution_rate 	33.333333333333
scalar Network500.node400 	rate_of_requesters 	1
scalar Network500.node400 	number_of_resources 	27500
scalar Network500.node400 	time_period 	2
scalar Network500.node400 	number_of_messages 	36
scalar Network500.node400 	discovery_latency 	2898
scalar Network500.node400 	number_of_desired_resources 	20
scalar Network500.node400 	query_homogenity_rate 	33.333333333333
scalar Network500.node400 	qrecord_time 	9539.449907215
scalar Network500.node400 	discovery_resolution_rate 	33.333333333333
scalar Network500.node160 	rate_of_requesters 	1
scalar Network500.node160 	number_of_resources 	27500
scalar Network500.node160 	time_period 	3
scalar Network500.node160 	number_of_messages 	50
scalar Network500.node160 	discovery_latency 	432
scalar Network500.node160 	number_of_desired_resources 	20
scalar Network500.node160 	query_homogenity_rate 	33.333333333333
scalar Network500.node160 	qrecord_time 	9692.316497564
scalar Network500.node160 	discovery_resolution_rate 	100
scalar Network500.node140 	rate_of_requesters 	1
scalar Network500.node140 	number_of_resources 	27500
scalar Network500.node140 	time_period 	4
scalar Network500.node140 	number_of_messages 	2
scalar Network500.node140 	discovery_latency 	2958
scalar Network500.node140 	number_of_desired_resources 	20
scalar Network500.node140 	query_homogenity_rate 	33.333333333333
scalar Network500.node140 	qrecord_time 	9709.598729355
scalar Network500.node140 	discovery_resolution_rate 	0
scalar Network500.node270 	rate_of_requesters 	1
scalar Network500.node270 	number_of_resources 	27500
scalar Network500.node270 	time_period 	2
scalar Network500.node270 	number_of_messages 	2
scalar Network500.node270 	discovery_latency 	2982
scalar Network500.node270 	number_of_desired_resources 	20
scalar Network500.node270 	query_homogenity_rate 	33.333333333333
scalar Network500.node270 	qrecord_time 	9739.964201554
scalar Network500.node270 	discovery_resolution_rate 	0
scalar Network500.node40 	rate_of_requesters 	1
scalar Network500.node40 	number_of_resources 	27500
scalar Network500.node40 	time_period 	2
scalar Network500.node40 	number_of_messages 	2
scalar Network500.node40 	discovery_latency 	2958
scalar Network500.node40 	number_of_desired_resources 	20
scalar Network500.node40 	query_homogenity_rate 	33.333333333333
scalar Network500.node40 	qrecord_time 	9776.146953137
scalar Network500.node40 	discovery_resolution_rate 	0
scalar Network500.node100 	rate_of_requesters 	1
scalar Network500.node100 	number_of_resources 	27500
scalar Network500.node100 	time_period 	2
scalar Network500.node100 	number_of_messages 	14
scalar Network500.node100 	discovery_latency 	2958
scalar Network500.node100 	number_of_desired_resources 	20
scalar Network500.node100 	query_homogenity_rate 	33.333333333333
scalar Network500.node100 	qrecord_time 	9841.382910735
scalar Network500.node100 	discovery_resolution_rate 	33.333333333333
scalar Network500.node230 	rate_of_requesters 	1
scalar Network500.node230 	number_of_resources 	27500
scalar Network500.node230 	time_period 	5
scalar Network500.node230 	number_of_messages 	14
scalar Network500.node230 	discovery_latency 	2994
scalar Network500.node230 	number_of_desired_resources 	20
scalar Network500.node230 	query_homogenity_rate 	33.333333333333
scalar Network500.node230 	qrecord_time 	9877.203010776
scalar Network500.node230 	discovery_resolution_rate 	33.333333333333
scalar Network500.node160 	rate_of_requesters 	1
scalar Network500.node160 	number_of_resources 	27500
scalar Network500.node160 	time_period 	2
scalar Network500.node160 	number_of_messages 	2
scalar Network500.node160 	discovery_latency 	2922
scalar Network500.node160 	number_of_desired_resources 	20
scalar Network500.node160 	query_homogenity_rate 	33.333333333333
scalar Network500.node160 	qrecord_time 	9992.422912987
scalar Network500.node160 	discovery_resolution_rate 	0
scalar Network500.node0 	rate_of_requesters 	1
scalar Network500.node0 	number_of_resources 	27500
scalar Network500.node0 	time_period 	3
scalar Network500.node0 	number_of_messages 	0
scalar Network500.node0 	discovery_latency 	2958
scalar Network500.node0 	number_of_desired_resources 	20
scalar Network500.node0 	query_homogenity_rate 	33.333333333333
scalar Network500.node0 	qrecord_time 	10017.562138029
scalar Network500.node0 	discovery_resolution_rate 	0
scalar Network500.node410 	rate_of_requesters 	1
scalar Network500.node410 	number_of_resources 	27500
scalar Network500.node410 	time_period 	2
scalar Network500.node410 	number_of_messages 	0
scalar Network500.node410 	discovery_latency 	2946
scalar Network500.node410 	number_of_desired_resources 	20
scalar Network500.node410 	query_homogenity_rate 	33.333333333333
scalar Network500.node410 	qrecord_time 	10039.532953347
scalar Network500.node410 	discovery_resolution_rate 	0
scalar Network500.node180 	rate_of_requesters 	1
scalar Network500.node180 	number_of_resources 	27500
scalar Network500.node180 	time_period 	2
scalar Network500.node180 	number_of_messages 	2
scalar Network500.node180 	discovery_latency 	3006
scalar Network500.node180 	number_of_desired_resources 	20
scalar Network500.node180 	query_homogenity_rate 	33.333333333333
scalar Network500.node180 	qrecord_time 	10102.730407873
scalar Network500.node180 	discovery_resolution_rate 	0
scalar Network500.node70 	rate_of_requesters 	1
scalar Network500.node70 	number_of_resources 	27500
scalar Network500.node70 	time_period 	2
scalar Network500.node70 	number_of_messages 	2
scalar Network500.node70 	discovery_latency 	3018
scalar Network500.node70 	number_of_desired_resources 	20
scalar Network500.node70 	query_homogenity_rate 	33.333333333333
scalar Network500.node70 	qrecord_time 	10161.340319727
scalar Network500.node70 	discovery_resolution_rate 	0
scalar Network500.node240 	rate_of_requesters 	1
scalar Network500.node240 	number_of_resources 	27500
scalar Network500.node240 	time_period 	3
scalar Network500.node240 	number_of_messages 	2
scalar Network500.node240 	discovery_latency 	3018
scalar Network500.node240 	number_of_desired_resources 	20
scalar Network500.node240 	query_homogenity_rate 	33.333333333333
scalar Network500.node240 	qrecord_time 	10184.344687608
scalar Network500.node240 	discovery_resolution_rate 	0
scalar Network500.node260 	rate_of_requesters 	1
scalar Network500.node260 	number_of_resources 	27500
scalar Network500.node260 	time_period 	2
scalar Network500.node260 	number_of_messages 	87
scalar Network500.node260 	discovery_latency 	2736
scalar Network500.node260 	number_of_desired_resources 	20
scalar Network500.node260 	query_homogenity_rate 	33.333333333333
scalar Network500.node260 	qrecord_time 	10206.188100573
scalar Network500.node260 	discovery_resolution_rate 	66.666666666667
scalar Network500.node320 	rate_of_requesters 	1
scalar Network500.node320 	number_of_resources 	27500
scalar Network500.node320 	time_period 	3
scalar Network500.node320 	number_of_messages 	13
scalar Network500.node320 	discovery_latency 	2874
scalar Network500.node320 	number_of_desired_resources 	20
scalar Network500.node320 	query_homogenity_rate 	33.333333333333
scalar Network500.node320 	qrecord_time 	10340.213544657
scalar Network500.node320 	discovery_resolution_rate 	33.333333333333
scalar Network500.node310 	rate_of_requesters 	1
scalar Network500.node310 	number_of_resources 	27500
scalar Network500.node310 	time_period 	3
scalar Network500.node310 	number_of_messages 	51
scalar Network500.node310 	discovery_latency 	2886
scalar Network500.node310 	number_of_desired_resources 	20
scalar Network500.node310 	query_homogenity_rate 	33.333333333333
scalar Network500.node310 	qrecord_time 	10372.115808452
scalar Network500.node310 	discovery_resolution_rate 	33.333333333333
scalar Network500.node50 	rate_of_requesters 	1
scalar Network500.node50 	number_of_resources 	27500
scalar Network500.node50 	time_period 	5
scalar Network500.node50 	number_of_messages 	2
scalar Network500.node50 	discovery_latency 	3078
scalar Network500.node50 	number_of_desired_resources 	20
scalar Network500.node50 	query_homogenity_rate 	33.333333333333
scalar Network500.node50 	qrecord_time 	10410.568866695
scalar Network500.node50 	discovery_resolution_rate 	0
scalar Network500.node50 	rate_of_requesters 	1
scalar Network500.node50 	number_of_resources 	27500
scalar Network500.node50 	time_period 	6
scalar Network500.node50 	number_of_messages 	139
scalar Network500.node50 	discovery_latency 	2910
scalar Network500.node50 	number_of_desired_resources 	20
scalar Network500.node50 	query_homogenity_rate 	33.333333333333
scalar Network500.node50 	qrecord_time 	10544.201383446
scalar Network500.node50 	discovery_resolution_rate 	16.666666666667
scalar Network500.node200 	rate_of_requesters 	1
scalar Network500.node200 	number_of_resources 	27500
scalar Network500.node200 	time_period 	2
scalar Network500.node200 	number_of_messages 	83
scalar Network500.node200 	discovery_latency 	2640
scalar Network500.node200 	number_of_desired_resources 	20
scalar Network500.node200 	query_homogenity_rate 	33.333333333333
scalar Network500.node200 	qrecord_time 	10549.302035589
scalar Network500.node200 	discovery_resolution_rate 	66.666666666667
scalar Network500.node0 	rate_of_requesters 	1
scalar Network500.node0 	number_of_resources 	27500
scalar Network500.node0 	time_period 	4
scalar Network500.node0 	number_of_messages 	6
scalar Network500.node0 	discovery_latency 	3006
scalar Network500.node0 	number_of_desired_resources 	20
scalar Network500.node0 	query_homogenity_rate 	33.333333333333
scalar Network500.node0 	qrecord_time 	10578.939835255
scalar Network500.node0 	discovery_resolution_rate 	33.333333333333
scalar Network500.node40 	rate_of_requesters 	1
scalar Network500.node40 	number_of_resources 	27500
scalar Network500.node40 	time_period 	3
scalar Network500.node40 	number_of_messages 	2
scalar Network500.node40 	discovery_latency 	2946
scalar Network500.node40 	number_of_desired_resources 	20
scalar Network500.node40 	query_homogenity_rate 	33.333333333333
scalar Network500.node40 	qrecord_time 	10636.351885286
scalar Network500.node40 	discovery_resolution_rate 	0
scalar Network500.node470 	rate_of_requesters 	1
scalar Network500.node470 	number_of_resources 	27500
scalar Network500.node470 	time_period 	2
scalar Network500.node470 	number_of_messages 	0
scalar Network500.node470 	discovery_latency 	2958
scalar Network500.node470 	number_of_desired_resources 	20
scalar Network500.node470 	query_homogenity_rate 	33.333333333333
scalar Network500.node470 	qrecord_time 	10636.482783723
scalar Network500.node470 	discovery_resolution_rate 	0
scalar Network500.node70 	rate_of_requesters 	1
scalar Network500.node70 	number_of_resources 	27500
scalar Network500.node70 	time_period 	3
scalar Network500.node70 	number_of_messages 	2
scalar Network500.node70 	discovery_latency 	2982
scalar Network500.node70 	number_of_desired_resources 	20
scalar Network500.node70 	query_homogenity_rate 	33.333333333333
scalar Network500.node70 	qrecord_time 	10672.184093797
scalar Network500.node70 	discovery_resolution_rate 	0
scalar Network500.node120 	rate_of_requesters 	1
scalar Network500.node120 	number_of_resources 	27500
scalar Network500.node120 	time_period 	3
scalar Network500.node120 	number_of_messages 	2
scalar Network500.node120 	discovery_latency 	3006
scalar Network500.node120 	number_of_desired_resources 	20
scalar Network500.node120 	query_homogenity_rate 	33.333333333333
scalar Network500.node120 	qrecord_time 	10777.400753605
scalar Network500.node120 	discovery_resolution_rate 	0
scalar Network500.node50 	rate_of_requesters 	1
scalar Network500.node50 	number_of_resources 	27500
scalar Network500.node50 	time_period 	7
scalar Network500.node50 	number_of_messages 	166
scalar Network500.node50 	discovery_latency 	2688
scalar Network500.node50 	number_of_desired_resources 	20
scalar Network500.node50 	query_homogenity_rate 	33.333333333333
scalar Network500.node50 	qrecord_time 	10782.470258905
scalar Network500.node50 	discovery_resolution_rate 	83.333333333333
scalar Network500.node220 	rate_of_requesters 	1
scalar Network500.node220 	number_of_resources 	27500
scalar Network500.node220 	time_period 	3
scalar Network500.node220 	number_of_messages 	2
scalar Network500.node220 	discovery_latency 	2934
scalar Network500.node220 	number_of_desired_resources 	20
scalar Network500.node220 	query_homogenity_rate 	33.333333333333
scalar Network500.node220 	qrecord_time 	10838.025024812
scalar Network500.node220 	discovery_resolution_rate 	0
scalar Network500.node340 	rate_of_requesters 	1
scalar Network500.node340 	number_of_resources 	27500
scalar Network500.node340 	time_period 	2
scalar Network500.node340 	number_of_messages 	2
scalar Network500.node340 	discovery_latency 	3114
scalar Network500.node340 	number_of_desired_resources 	20
scalar Network500.node340 	query_homogenity_rate 	33.333333333333
scalar Network500.node340 	qrecord_time 	10875.249281028
scalar Network500.node340 	discovery_resolution_rate 	0
scalar Network500.node330 	rate_of_requesters 	1
scalar Network500.node330 	number_of_resources 	27500
scalar Network500.node330 	time_period 	3
scalar Network500.node330 	number_of_messages 	32
scalar Network500.node330 	discovery_latency 	2922
scalar Network500.node330 	number_of_desired_resources 	20
scalar Network500.node330 	query_homogenity_rate 	33.333333333333
scalar Network500.node330 	qrecord_time 	10883.657206546
scalar Network500.node330 	discovery_resolution_rate 	66.666666666667
scalar Network500.node300 	rate_of_requesters 	1
scalar Network500.node300 	number_of_resources 	27500
scalar Network500.node300 	time_period 	2
scalar Network500.node300 	number_of_messages 	2
scalar Network500.node300 	discovery_latency 	2910
scalar Network500.node300 	number_of_desired_resources 	20
scalar Network500.node300 	query_homogenity_rate 	33.333333333333
scalar Network500.node300 	qrecord_time 	10958.257261007
scalar Network500.node300 	discovery_resolution_rate 	0
scalar Network500.node440 	rate_of_requesters 	1
scalar Network500.node440 	number_of_resources 	27500
scalar Network500.node440 	time_period 	2
scalar Network500.node440 	number_of_messages 	27
scalar Network500.node440 	discovery_latency 	2922
scalar Network500.node440 	number_of_desired_resources 	20
scalar Network500.node440 	query_homogenity_rate 	33.333333333333
scalar Network500.node440 	qrecord_time 	10966.20079623
scalar Network500.node440 	discovery_resolution_rate 	66.666666666667
scalar Network500.node30 	rate_of_requesters 	1
scalar Network500.node30 	number_of_resources 	27500
scalar Network500.node30 	time_period 	3
scalar Network500.node30 	number_of_messages 	35
scalar Network500.node30 	discovery_latency 	3030
scalar Network500.node30 	number_of_desired_resources 	20
scalar Network500.node30 	query_homogenity_rate 	33.333333333333
scalar Network500.node30 	qrecord_time 	11214.544755568
scalar Network500.node30 	discovery_resolution_rate 	33.333333333333
scalar Network500.node140 	rate_of_requesters 	1
scalar Network500.node140 	number_of_resources 	27500
scalar Network500.node140 	time_period 	5
scalar Network500.node140 	number_of_messages 	2
scalar Network500.node140 	discovery_latency 	3090
scalar Network500.node140 	number_of_desired_resources 	20
scalar Network500.node140 	query_homogenity_rate 	33.333333333333
scalar Network500.node140 	qrecord_time 	11250.140112375
scalar Network500.node140 	discovery_resolution_rate 	0
scalar Network500.node490 	rate_of_requesters 	1
scalar Network500.node490 	number_of_resources 	27500
scalar Network500.node490 	time_period 	2
scalar Network500.node490 	number_of_messages 	2
scalar Network500.node490 	discovery_latency 	3042
scalar Network500.node490 	number_of_desired_resources 	20
scalar Network500.node490 	query_homogenity_rate 	33.333333333333
scalar Network500.node490 	qrecord_time 	11480.337971503
scalar Network500.node490 	discovery_resolution_rate 	0
scalar Network500.node330 	rate_of_requesters 	1
scalar Network500.node330 	number_of_resources 	27500
scalar Network500.node330 	time_period 	4
scalar Network500.node330 	number_of_messages 	34
scalar Network500.node330 	discovery_latency 	3054
scalar Network500.node330 	number_of_desired_resources 	20
scalar Network500.node330 	query_homogenity_rate 	33.333333333333
scalar Network500.node330 	qrecord_time 	11597.374865914
scalar Network500.node330 	discovery_resolution_rate 	33.333333333333
scalar Network500.node420 	rate_of_requesters 	1
scalar Network500.node420 	number_of_resources 	27500
scalar Network500.node420 	time_period 	3
scalar Network500.node420 	number_of_messages 	2
scalar Network500.node420 	discovery_latency 	3042
scalar Network500.node420 	number_of_desired_resources 	20
scalar Network500.node420 	query_homogenity_rate 	33.333333333333
scalar Network500.node420 	qrecord_time 	11632.13097605
scalar Network500.node420 	discovery_resolution_rate 	0
scalar Network500.node180 	rate_of_requesters 	1
scalar Network500.node180 	number_of_resources 	27500
scalar Network500.node180 	time_period 	3
scalar Network500.node180 	number_of_messages 	94
scalar Network500.node180 	discovery_latency 	2616
scalar Network500.node180 	number_of_desired_resources 	20
scalar Network500.node180 	query_homogenity_rate 	33.333333333333
scalar Network500.node180 	qrecord_time 	11733.618711513
scalar Network500.node180 	discovery_resolution_rate 	66.666666666667
scalar Network500.node30 	rate_of_requesters 	1
scalar Network500.node30 	number_of_resources 	27500
scalar Network500.node30 	time_period 	4
scalar Network500.node30 	number_of_messages 	2
scalar Network500.node30 	discovery_latency 	2922
scalar Network500.node30 	number_of_desired_resources 	20
scalar Network500.node30 	query_homogenity_rate 	33.333333333333
scalar Network500.node30 	qrecord_time 	11804.911756458
scalar Network500.node30 	discovery_resolution_rate 	0
scalar Network500.node300 	rate_of_requesters 	1
scalar Network500.node300 	number_of_resources 	27500
scalar Network500.node300 	time_period 	3
scalar Network500.node300 	number_of_messages 	2
scalar Network500.node300 	discovery_latency 	3018
scalar Network500.node300 	number_of_desired_resources 	20
scalar Network500.node300 	query_homogenity_rate 	33.333333333333
scalar Network500.node300 	qrecord_time 	11822.222958732
scalar Network500.node300 	discovery_resolution_rate 	0
scalar Network500.node300 	rate_of_requesters 	1
scalar Network500.node300 	number_of_resources 	27500
scalar Network500.node300 	time_period 	4
scalar Network500.node300 	number_of_messages 	15
scalar Network500.node300 	discovery_latency 	2874
scalar Network500.node300 	number_of_desired_resources 	20
scalar Network500.node300 	query_homogenity_rate 	33.333333333333
scalar Network500.node300 	qrecord_time 	11830.478816189
scalar Network500.node300 	discovery_resolution_rate 	33.333333333333
scalar Network500.node450 	rate_of_requesters 	1
scalar Network500.node450 	number_of_resources 	27500
scalar Network500.node450 	time_period 	2
scalar Network500.node450 	number_of_messages 	14
scalar Network500.node450 	discovery_latency 	2982
scalar Network500.node450 	number_of_desired_resources 	20
scalar Network500.node450 	query_homogenity_rate 	33.333333333333
scalar Network500.node450 	qrecord_time 	11833.920435611
scalar Network500.node450 	discovery_resolution_rate 	33.333333333333
scalar Network500.node340 	rate_of_requesters 	1
scalar Network500.node340 	number_of_resources 	27500
scalar Network500.node340 	time_period 	3
scalar Network500.node340 	number_of_messages 	13
scalar Network500.node340 	discovery_latency 	2958
scalar Network500.node340 	number_of_desired_resources 	20
scalar Network500.node340 	query_homogenity_rate 	33.333333333333
scalar Network500.node340 	qrecord_time 	11920.962254983
scalar Network500.node340 	discovery_resolution_rate 	33.333333333333
scalar Network500.node310 	rate_of_requesters 	1
scalar Network500.node310 	number_of_resources 	27500
scalar Network500.node310 	time_period 	4
scalar Network500.node310 	number_of_messages 	67
scalar Network500.node310 	discovery_latency 	660
scalar Network500.node310 	number_of_desired_resources 	20
scalar Network500.node310 	query_homogenity_rate 	33.333333333333
scalar Network500.node310 	qrecord_time 	11926.255821158
scalar Network500.node310 	discovery_resolution_rate 	100
scalar Network500.node340 	rate_of_requesters 	1
scalar Network500.node340 	number_of_resources 	27500
scalar Network500.node340 	time_period 	4
scalar Network500.node340 	number_of_messages 	126
scalar Network500.node340 	discovery_latency 	3006
scalar Network500.node340 	number_of_desired_resources 	20
scalar Network500.node340 	query_homogenity_rate 	33.333333333333
scalar Network500.node340 	qrecord_time 	12077.641860475
scalar Network500.node340 	discovery_resolution_rate 	33.333333333333
scalar Network500.node220 	rate_of_requesters 	1
scalar Network500.node220 	number_of_resources 	27500
scalar Network500.node220 	time_period 	4
scalar Network500.node220 	number_of_messages 	2
scalar Network500.node220 	discovery_latency 	3018
scalar Network500.node220 	number_of_desired_resources 	20
scalar Network500.node220 	query_homogenity_rate 	33.333333333333
scalar Network500.node220 	qrecord_time 	12132.815552103
scalar Network500.node220 	discovery_resolution_rate 	0
scalar Network500.node160 	rate_of_requesters 	1
scalar Network500.node160 	number_of_resources 	27500
scalar Network500.node160 	time_period 	4
scalar Network500.node160 	number_of_messages 	27
scalar Network500.node160 	discovery_latency 	2772
scalar Network500.node160 	number_of_desired_resources 	20
scalar Network500.node160 	query_homogenity_rate 	33.333333333333
scalar Network500.node160 	qrecord_time 	12133.736554465
scalar Network500.node160 	discovery_resolution_rate 	66.666666666667
scalar Network500.node200 	rate_of_requesters 	1
scalar Network500.node200 	number_of_resources 	27500
scalar Network500.node200 	time_period 	3
scalar Network500.node200 	number_of_messages 	45
scalar Network500.node200 	discovery_latency 	2982
scalar Network500.node200 	number_of_desired_resources 	20
scalar Network500.node200 	query_homogenity_rate 	33.333333333333
scalar Network500.node200 	qrecord_time 	12295.837783363
scalar Network500.node200 	discovery_resolution_rate 	66.666666666667
scalar Network500.node330 	rate_of_requesters 	1
scalar Network500.node330 	number_of_resources 	27500
scalar Network500.node330 	time_period 	5
scalar Network500.node330 	number_of_messages 	40
scalar Network500.node330 	discovery_latency 	2808
scalar Network500.node330 	number_of_desired_resources 	20
scalar Network500.node330 	query_homogenity_rate 	33.333333333333
scalar Network500.node330 	qrecord_time 	12404.116931882
scalar Network500.node330 	discovery_resolution_rate 	66.666666666667
scalar Network500.node170 	rate_of_requesters 	1
scalar Network500.node170 	number_of_resources 	27500
scalar Network500.node170 	time_period 	2
scalar Network500.node170 	number_of_messages 	62
scalar Network500.node170 	discovery_latency 	480
scalar Network500.node170 	number_of_desired_resources 	20
scalar Network500.node170 	query_homogenity_rate 	33.333333333333
scalar Network500.node170 	qrecord_time 	12465.249042034
scalar Network500.node170 	discovery_resolution_rate 	100
scalar Network500.node160 	rate_of_requesters 	1
scalar Network500.node160 	number_of_resources 	27500
scalar Network500.node160 	time_period 	5
scalar Network500.node160 	number_of_messages 	64
scalar Network500.node160 	discovery_latency 	2736
scalar Network500.node160 	number_of_desired_resources 	20
scalar Network500.node160 	query_homogenity_rate 	33.333333333333
scalar Network500.node160 	qrecord_time 	12501.335497582
scalar Network500.node160 	discovery_resolution_rate 	66.666666666667
scalar Network500.node460 	rate_of_requesters 	1
scalar Network500.node460 	number_of_resources 	27500
scalar Network500.node460 	time_period 	3
scalar Network500.node460 	number_of_messages 	106
scalar Network500.node460 	discovery_latency 	2772
scalar Network500.node460 	number_of_desired_resources 	20
scalar Network500.node460 	query_homogenity_rate 	33.333333333333
scalar Network500.node460 	qrecord_time 	12578.977154947
scalar Network500.node460 	discovery_resolution_rate 	66.666666666667
scalar Network500.node190 	rate_of_requesters 	1
scalar Network500.node190 	number_of_resources 	27500
scalar Network500.node190 	time_period 	3
scalar Network500.node190 	number_of_messages 	152
scalar Network500.node190 	discovery_latency 	3018
scalar Network500.node190 	number_of_desired_resources 	20
scalar Network500.node190 	query_homogenity_rate 	33.333333333333
scalar Network500.node190 	qrecord_time 	12647.030411909
scalar Network500.node190 	discovery_resolution_rate 	16.666666666667
scalar Network500.node270 	rate_of_requesters 	1
scalar Network500.node270 	number_of_resources 	27500
scalar Network500.node270 	time_period 	3
scalar Network500.node270 	number_of_messages 	32
scalar Network500.node270 	discovery_latency 	3018
scalar Network500.node270 	number_of_desired_resources 	20
scalar Network500.node270 	query_homogenity_rate 	33.333333333333
scalar Network500.node270 	qrecord_time 	12679.325812739
scalar Network500.node270 	discovery_resolution_rate 	33.333333333333
scalar Network500.node430 	rate_of_requesters 	1
scalar Network500.node430 	number_of_resources 	27500
scalar Network500.node430 	time_period 	3
scalar Network500.node430 	number_of_messages 	23
scalar Network500.node430 	discovery_latency 	3006
scalar Network500.node430 	number_of_desired_resources 	20
scalar Network500.node430 	query_homogenity_rate 	33.333333333333
scalar Network500.node430 	qrecord_time 	12687.47808648
scalar Network500.node430 	discovery_resolution_rate 	66.666666666667
scalar Network500.node210 	rate_of_requesters 	1
scalar Network500.node210 	number_of_resources 	27500
scalar Network500.node210 	time_period 	2
scalar Network500.node210 	number_of_messages 	48
scalar Network500.node210 	discovery_latency 	2808
scalar Network500.node210 	number_of_desired_resources 	20
scalar Network500.node210 	query_homogenity_rate 	33.333333333333
scalar Network500.node210 	qrecord_time 	12769.695412919
scalar Network500.node210 	discovery_resolution_rate 	66.666666666667
scalar Network500.node440 	rate_of_requesters 	1
scalar Network500.node440 	number_of_resources 	27500
scalar Network500.node440 	time_period 	3
scalar Network500.node440 	number_of_messages 	85
scalar Network500.node440 	discovery_latency 	2844
scalar Network500.node440 	number_of_desired_resources 	20
scalar Network500.node440 	query_homogenity_rate 	33.333333333333
scalar Network500.node440 	qrecord_time 	12813.999159678
scalar Network500.node440 	discovery_resolution_rate 	66.666666666667
scalar Network500.node410 	rate_of_requesters 	1
scalar Network500.node410 	number_of_resources 	27500
scalar Network500.node410 	time_period 	3
scalar Network500.node410 	number_of_messages 	38
scalar Network500.node410 	discovery_latency 	3066
scalar Network500.node410 	number_of_desired_resources 	20
scalar Network500.node410 	query_homogenity_rate 	33.333333333333
scalar Network500.node410 	qrecord_time 	12818.37262393
scalar Network500.node410 	discovery_resolution_rate 	33.333333333333
scalar Network500.node150 	rate_of_requesters 	1
scalar Network500.node150 	number_of_resources 	27500
scalar Network500.node150 	time_period 	3
scalar Network500.node150 	number_of_messages 	32
scalar Network500.node150 	discovery_latency 	2946
scalar Network500.node150 	number_of_desired_resources 	20
scalar Network500.node150 	query_homogenity_rate 	33.333333333333
scalar Network500.node150 	qrecord_time 	12866.373796919
scalar Network500.node150 	discovery_resolution_rate 	33.333333333333
scalar Network500.node320 	rate_of_requesters 	1
scalar Network500.node320 	number_of_resources 	27500
scalar Network500.node320 	time_period 	4
scalar Network500.node320 	number_of_messages 	257
scalar Network500.node320 	discovery_latency 	2712
scalar Network500.node320 	number_of_desired_resources 	20
scalar Network500.node320 	query_homogenity_rate 	33.333333333333
scalar Network500.node320 	qrecord_time 	12899.015928722
scalar Network500.node320 	discovery_resolution_rate 	83.333333333333
scalar Network500.node260 	rate_of_requesters 	1
scalar Network500.node260 	number_of_resources 	27500
scalar Network500.node260 	time_period 	3
scalar Network500.node260 	number_of_messages 	189
scalar Network500.node260 	discovery_latency 	2970
scalar Network500.node260 	number_of_desired_resources 	20
scalar Network500.node260 	query_homogenity_rate 	33.333333333333
scalar Network500.node260 	qrecord_time 	13007.381674969
scalar Network500.node260 	discovery_resolution_rate 	50
scalar Network500.node210 	rate_of_requesters 	1
scalar Network500.node210 	number_of_resources 	27500
scalar Network500.node210 	time_period 	3
scalar Network500.node210 	number_of_messages 	25
scalar Network500.node210 	discovery_latency 	2934
scalar Network500.node210 	number_of_desired_resources 	20
scalar Network500.node210 	query_homogenity_rate 	33.333333333333
scalar Network500.node210 	qrecord_time 	13218.307203803
scalar Network500.node210 	discovery_resolution_rate 	66.666666666667
scalar Network500.node290 	rate_of_requesters 	1
scalar Network500.node290 	number_of_resources 	27500
scalar Network500.node290 	time_period 	2
scalar Network500.node290 	number_of_messages 	25
scalar Network500.node290 	discovery_latency 	3006
scalar Network500.node290 	number_of_desired_resources 	20
scalar Network500.node290 	query_homogenity_rate 	33.333333333333
scalar Network500.node290 	qrecord_time 	13384.631020011
scalar Network500.node290 	discovery_resolution_rate 	66.666666666667
scalar Network500.node50 	rate_of_requesters 	1
scalar Network500.node50 	number_of_resources 	27500
scalar Network500.node50 	time_period 	8
scalar Network500.node50 	number_of_messages 	22
scalar Network500.node50 	discovery_latency 	2910
scalar Network500.node50 	number_of_desired_resources 	20
scalar Network500.node50 	query_homogenity_rate 	33.333333333333
scalar Network500.node50 	qrecord_time 	13416.877833778
scalar Network500.node50 	discovery_resolution_rate 	33.333333333333
scalar Network500.node220 	rate_of_requesters 	1
scalar Network500.node220 	number_of_resources 	27500
scalar Network500.node220 	time_period 	5
scalar Network500.node220 	number_of_messages 	182
scalar Network500.node220 	discovery_latency 	3066
scalar Network500.node220 	number_of_desired_resources 	20
scalar Network500.node220 	query_homogenity_rate 	33.333333333333
scalar Network500.node220 	qrecord_time 	13578.873411331
scalar Network500.node220 	discovery_resolution_rate 	50
scalar Network500.node220 	rate_of_requesters 	1
scalar Network500.node220 	number_of_resources 	27500
scalar Network500.node220 	time_period 	7
scalar Network500.node220 	number_of_messages 	109
scalar Network500.node220 	discovery_latency 	2748
scalar Network500.node220 	number_of_desired_resources 	20
scalar Network500.node220 	query_homogenity_rate 	33.333333333333
scalar Network500.node220 	qrecord_time 	13589.756881838
scalar Network500.node220 	discovery_resolution_rate 	66.666666666667
scalar Network500.node340 	rate_of_requesters 	1
scalar Network500.node340 	number_of_resources 	27500
scalar Network500.node340 	time_period 	5
scalar Network500.node340 	number_of_messages 	30
scalar Network500.node340 	discovery_latency 	3066
scalar Network500.node340 	number_of_desired_resources 	20
scalar Network500.node340 	query_homogenity_rate 	33.333333333333
scalar Network500.node340 	qrecord_time 	13763.366425178
scalar Network500.node340 	discovery_resolution_rate 	66.666666666667
scalar Network500.node370 	rate_of_requesters 	1
scalar Network500.node370 	number_of_resources 	27500
scalar Network500.node370 	time_period 	4
scalar Network500.node370 	number_of_messages 	5
scalar Network500.node370 	discovery_latency 	3114
scalar Network500.node370 	number_of_desired_resources 	20
scalar Network500.node370 	query_homogenity_rate 	33.333333333333
scalar Network500.node370 	qrecord_time 	13766.556113967
scalar Network500.node370 	discovery_resolution_rate 	33.333333333333
scalar Network500.node220 	rate_of_requesters 	1
scalar Network500.node220 	number_of_resources 	27500
scalar Network500.node220 	time_period 	6
scalar Network500.node220 	number_of_messages 	2
scalar Network500.node220 	discovery_latency 	3126
scalar Network500.node220 	number_of_desired_resources 	20
scalar Network500.node220 	query_homogenity_rate 	33.333333333333
scalar Network500.node220 	qrecord_time 	13770.147943841
scalar Network500.node220 	discovery_resolution_rate 	0
scalar Network500.node450 	rate_of_requesters 	1
scalar Network500.node450 	number_of_resources 	27500
scalar Network500.node450 	time_period 	3
scalar Network500.node450 	number_of_messages 	2
scalar Network500.node450 	discovery_latency 	3066
scalar Network500.node450 	number_of_desired_resources 	20
scalar Network500.node450 	query_homogenity_rate 	33.333333333333
scalar Network500.node450 	qrecord_time 	13853.772451204
scalar Network500.node450 	discovery_resolution_rate 	0
scalar Network500.node480 	rate_of_requesters 	1
scalar Network500.node480 	number_of_resources 	27500
scalar Network500.node480 	time_period 	2
scalar Network500.node480 	number_of_messages 	45
scalar Network500.node480 	discovery_latency 	354
scalar Network500.node480 	number_of_desired_resources 	20
scalar Network500.node480 	query_homogenity_rate 	33.333333333333
scalar Network500.node480 	qrecord_time 	13871.606306732
scalar Network500.node480 	discovery_resolution_rate 	100
scalar Network500.node400 	rate_of_requesters 	1
scalar Network500.node400 	number_of_resources 	27500
scalar Network500.node400 	time_period 	3
scalar Network500.node400 	number_of_messages 	139
scalar Network500.node400 	discovery_latency 	3090
scalar Network500.node400 	number_of_desired_resources 	20
scalar Network500.node400 	query_homogenity_rate 	33.333333333333
scalar Network500.node400 	qrecord_time 	13944.930854497
scalar Network500.node400 	discovery_resolution_rate 	16.666666666667
scalar Network500.node180 	rate_of_requesters 	1
scalar Network500.node180 	number_of_resources 	27500
scalar Network500.node180 	time_period 	4
scalar Network500.node180 	number_of_messages 	152
scalar Network500.node180 	discovery_latency 	3054
scalar Network500.node180 	number_of_desired_resources 	20
scalar Network500.node180 	query_homogenity_rate 	33.333333333333
scalar Network500.node180 	qrecord_time 	14045.434512938
scalar Network500.node180 	discovery_resolution_rate 	16.666666666667
scalar Network500.node280 	rate_of_requesters 	1
scalar Network500.node280 	number_of_resources 	27500
scalar Network500.node280 	time_period 	4
scalar Network500.node280 	number_of_messages 	35
scalar Network500.node280 	discovery_latency 	3078
scalar Network500.node280 	number_of_desired_resources 	20
scalar Network500.node280 	query_homogenity_rate 	33.333333333333
scalar Network500.node280 	qrecord_time 	14330.352159556
scalar Network500.node280 	discovery_resolution_rate 	33.333333333333
scalar Network500.node50 	rate_of_requesters 	1
scalar Network500.node50 	number_of_resources 	27500
scalar Network500.node50 	time_period 	9
scalar Network500.node50 	number_of_messages 	49
scalar Network500.node50 	discovery_latency 	2556
scalar Network500.node50 	number_of_desired_resources 	20
scalar Network500.node50 	query_homogenity_rate 	33.333333333333
scalar Network500.node50 	qrecord_time 	14423.99931934
scalar Network500.node50 	discovery_resolution_rate 	66.666666666667
scalar Network500.node220 	rate_of_requesters 	1
scalar Network500.node220 	number_of_resources 	27500
scalar Network500.node220 	time_period 	8
scalar Network500.node220 	number_of_messages 	39
scalar Network500.node220 	discovery_latency 	3054
scalar Network500.node220 	number_of_desired_resources 	20
scalar Network500.node220 	query_homogenity_rate 	33.333333333333
scalar Network500.node220 	qrecord_time 	14623.599384481
scalar Network500.node220 	discovery_resolution_rate 	66.666666666667
scalar Network500.node100 	rate_of_requesters 	1
scalar Network500.node100 	number_of_resources 	27500
scalar Network500.node100 	time_period 	3
scalar Network500.node100 	number_of_messages 	172
scalar Network500.node100 	discovery_latency 	3162
scalar Network500.node100 	number_of_desired_resources 	20
scalar Network500.node100 	query_homogenity_rate 	33.333333333333
scalar Network500.node100 	qrecord_time 	14666.658095557
scalar Network500.node100 	discovery_resolution_rate 	50
scalar Network500.node60 	rate_of_requesters 	1
scalar Network500.node60 	number_of_resources 	27500
scalar Network500.node60 	time_period 	2
scalar Network500.node60 	number_of_messages 	148
scalar Network500.node60 	discovery_latency 	2688
scalar Network500.node60 	number_of_desired_resources 	20
scalar Network500.node60 	query_homogenity_rate 	33.333333333333
scalar Network500.node60 	qrecord_time 	14773.627266318
scalar Network500.node60 	discovery_resolution_rate 	66.666666666667
scalar Network500.node410 	rate_of_requesters 	1
scalar Network500.node410 	number_of_resources 	27500
scalar Network500.node410 	time_period 	4
scalar Network500.node410 	number_of_messages 	150
scalar Network500.node410 	discovery_latency 	3018
scalar Network500.node410 	number_of_desired_resources 	20
scalar Network500.node410 	query_homogenity_rate 	33.333333333333
scalar Network500.node410 	qrecord_time 	14822.326541248
scalar Network500.node410 	discovery_resolution_rate 	16.666666666667
scalar Network500.node180 	rate_of_requesters 	1
scalar Network500.node180 	number_of_resources 	27500
scalar Network500.node180 	time_period 	5
scalar Network500.node180 	number_of_messages 	7
scalar Network500.node180 	discovery_latency 	3054
scalar Network500.node180 	number_of_desired_resources 	20
scalar Network500.node180 	query_homogenity_rate 	33.333333333333
scalar Network500.node180 	qrecord_time 	14838.203208826
scalar Network500.node180 	discovery_resolution_rate 	33.333333333333
scalar Network500.node200 	rate_of_requesters 	1
scalar Network500.node200 	number_of_resources 	27500
scalar Network500.node200 	time_period 	4
scalar Network500.node200 	number_of_messages 	2
scalar Network500.node200 	discovery_latency 	3078
scalar Network500.node200 	number_of_desired_resources 	20
scalar Network500.node200 	query_homogenity_rate 	33.333333333333
scalar Network500.node200 	qrecord_time 	14867.408332258
scalar Network500.node200 	discovery_resolution_rate 	0
scalar Network500.node150 	rate_of_requesters 	1
scalar Network500.node150 	number_of_resources 	27500
scalar Network500.node150 	time_period 	4
scalar Network500.node150 	number_of_messages 	84
scalar Network500.node150 	discovery_latency 	1032
scalar Network500.node150 	number_of_desired_resources 	20
scalar Network500.node150 	query_homogenity_rate 	33.333333333333
scalar Network500.node150 	qrecord_time 	14995.885469853
scalar Network500.node150 	discovery_resolution_rate 	100
scalar Network500.node250 	rate_of_requesters 	1
scalar Network500.node250 	number_of_resources 	27500
scalar Network500.node250 	time_period 	3
scalar Network500.node250 	number_of_messages 	48
[...]
scalar Network500.node60 	rate_of_requesters 	1
scalar Network500.node60 	number_of_resources 	27500
scalar Network500.node60 	time_period 	10
scalar Network500.node60 	number_of_messages 	53
scalar Network500.node60 	discovery_latency 	468
scalar Network500.node60 	number_of_desired_resources 	20
scalar Network500.node60 	query_homogenity_rate 	33.333333333333
scalar Network500.node60 	qrecord_time 	45378.079168803
scalar Network500.node60 	discovery_resolution_rate 	100
scalar Network500.node370 	rate_of_requesters 	1
scalar Network500.node370 	number_of_resources 	27500
scalar Network500.node370 	time_period 	9
scalar Network500.node370 	number_of_messages 	54
scalar Network500.node370 	discovery_latency 	468
scalar Network500.node370 	number_of_desired_resources 	20
scalar Network500.node370 	query_homogenity_rate 	33.333333333333
scalar Network500.node370 	qrecord_time 	45434.684248032
scalar Network500.node370 	discovery_resolution_rate 	100
scalar Network500.node30 	rate_of_requesters 	1
scalar Network500.node30 	number_of_resources 	27500
scalar Network500.node30 	time_period 	9
scalar Network500.node30 	number_of_messages 	28
scalar Network500.node30 	discovery_latency 	246
scalar Network500.node30 	number_of_desired_resources 	20
scalar Network500.node30 	query_homogenity_rate 	33.333333333333
scalar Network500.node30 	qrecord_time 	45460.109380336
scalar Network500.node30 	discovery_resolution_rate 	100
scalar Network500.node490 	rate_of_requesters 	1
scalar Network500.node490 	number_of_resources 	27500
scalar Network500.node490 	time_period 	8
scalar Network500.node490 	number_of_messages 	37
scalar Network500.node490 	discovery_latency 	540
scalar Network500.node490 	number_of_desired_resources 	20
scalar Network500.node490 	query_homogenity_rate 	33.333333333333
scalar Network500.node490 	qrecord_time 	45616.622381092
scalar Network500.node490 	discovery_resolution_rate 	100
scalar Network500.node190 	rate_of_requesters 	1
scalar Network500.node190 	number_of_resources 	27500
scalar Network500.node190 	time_period 	8
scalar Network500.node190 	number_of_messages 	31
scalar Network500.node190 	discovery_latency 	2688
scalar Network500.node190 	number_of_desired_resources 	20
scalar Network500.node190 	query_homogenity_rate 	33.333333333333
scalar Network500.node190 	qrecord_time 	45710.358326082
scalar Network500.node190 	discovery_resolution_rate 	66.666666666667
scalar Network500.node110 	rate_of_requesters 	1
scalar Network500.node110 	number_of_resources 	27500
scalar Network500.node110 	time_period 	9
scalar Network500.node110 	number_of_messages 	12
scalar Network500.node110 	discovery_latency 	3018
scalar Network500.node110 	number_of_desired_resources 	20
scalar Network500.node110 	query_homogenity_rate 	33.333333333333
scalar Network500.node110 	qrecord_time 	45796.123954462
scalar Network500.node110 	discovery_resolution_rate 	66.666666666667
scalar Network500.node360 	rate_of_requesters 	1
scalar Network500.node360 	number_of_resources 	27500
scalar Network500.node360 	time_period 	9
scalar Network500.node360 	number_of_messages 	6
scalar Network500.node360 	discovery_latency 	3018
scalar Network500.node360 	number_of_desired_resources 	20
scalar Network500.node360 	query_homogenity_rate 	33.333333333333
scalar Network500.node360 	qrecord_time 	46045.896533531
scalar Network500.node360 	discovery_resolution_rate 	33.333333333333
scalar Network500.node190 	rate_of_requesters 	1
scalar Network500.node190 	number_of_resources 	27500
scalar Network500.node190 	time_period 	9
scalar Network500.node190 	number_of_messages 	39
scalar Network500.node190 	discovery_latency 	306
scalar Network500.node190 	number_of_desired_resources 	20
scalar Network500.node190 	query_homogenity_rate 	33.333333333333
scalar Network500.node190 	qrecord_time 	46149.525732146
scalar Network500.node190 	discovery_resolution_rate 	100
scalar Network500.node490 	rate_of_requesters 	1
scalar Network500.node490 	number_of_resources 	27500
scalar Network500.node490 	time_period 	9
scalar Network500.node490 	number_of_messages 	31
scalar Network500.node490 	discovery_latency 	270
scalar Network500.node490 	number_of_desired_resources 	20
scalar Network500.node490 	query_homogenity_rate 	33.333333333333
scalar Network500.node490 	qrecord_time 	46296.992072264
scalar Network500.node490 	discovery_resolution_rate 	100
scalar Network500.node70 	rate_of_requesters 	1
scalar Network500.node70 	number_of_resources 	27500
scalar Network500.node70 	time_period 	9
scalar Network500.node70 	number_of_messages 	33
scalar Network500.node70 	discovery_latency 	258
scalar Network500.node70 	number_of_desired_resources 	20
scalar Network500.node70 	query_homogenity_rate 	33.333333333333
scalar Network500.node70 	qrecord_time 	46499.182670324
scalar Network500.node70 	discovery_resolution_rate 	100
scalar Network500.node80 	rate_of_requesters 	1
scalar Network500.node80 	number_of_resources 	27500
scalar Network500.node80 	time_period 	8
scalar Network500.node80 	number_of_messages 	24
scalar Network500.node80 	discovery_latency 	198
scalar Network500.node80 	number_of_desired_resources 	20
scalar Network500.node80 	query_homogenity_rate 	33.333333333333
scalar Network500.node80 	qrecord_time 	46525.457384791
scalar Network500.node80 	discovery_resolution_rate 	100
scalar Network500.node490 	rate_of_requesters 	1
scalar Network500.node490 	number_of_resources 	27500
scalar Network500.node490 	time_period 	10
scalar Network500.node490 	number_of_messages 	36
scalar Network500.node490 	discovery_latency 	288
scalar Network500.node490 	number_of_desired_resources 	20
scalar Network500.node490 	query_homogenity_rate 	33.333333333333
scalar Network500.node490 	qrecord_time 	46661.66271807
scalar Network500.node490 	discovery_resolution_rate 	100
scalar Network500.node80 	rate_of_requesters 	1
scalar Network500.node80 	number_of_resources 	27500
scalar Network500.node80 	time_period 	9
scalar Network500.node80 	number_of_messages 	51
scalar Network500.node80 	discovery_latency 	768
scalar Network500.node80 	number_of_desired_resources 	20
scalar Network500.node80 	query_homogenity_rate 	33.333333333333
scalar Network500.node80 	qrecord_time 	47129.785806503
scalar Network500.node80 	discovery_resolution_rate 	100
scalar Network500.node450 	rate_of_requesters 	1
scalar Network500.node450 	number_of_resources 	27500
scalar Network500.node450 	time_period 	10
scalar Network500.node450 	number_of_messages 	50
scalar Network500.node450 	discovery_latency 	552
scalar Network500.node450 	number_of_desired_resources 	20
scalar Network500.node450 	query_homogenity_rate 	33.333333333333
scalar Network500.node450 	qrecord_time 	47532.481294511
scalar Network500.node450 	discovery_resolution_rate 	100
scalar Network500.node290 	rate_of_requesters 	1
scalar Network500.node290 	number_of_resources 	27500
scalar Network500.node290 	time_period 	9
scalar Network500.node290 	number_of_messages 	43
scalar Network500.node290 	discovery_latency 	516
scalar Network500.node290 	number_of_desired_resources 	20
scalar Network500.node290 	query_homogenity_rate 	33.333333333333
scalar Network500.node290 	qrecord_time 	47828.402527193
scalar Network500.node290 	discovery_resolution_rate 	100
scalar Network500.node240 	rate_of_requesters 	1
scalar Network500.node240 	number_of_resources 	27500
scalar Network500.node240 	time_period 	9
scalar Network500.node240 	number_of_messages 	25
scalar Network500.node240 	discovery_latency 	168
scalar Network500.node240 	number_of_desired_resources 	20
scalar Network500.node240 	query_homogenity_rate 	33.333333333333
scalar Network500.node240 	qrecord_time 	47959.778786956
scalar Network500.node240 	discovery_resolution_rate 	100
scalar Network500.node390 	rate_of_requesters 	1
scalar Network500.node390 	number_of_resources 	27500
scalar Network500.node390 	time_period 	7
scalar Network500.node390 	number_of_messages 	20
scalar Network500.node390 	discovery_latency 	89.999999999996
scalar Network500.node390 	number_of_desired_resources 	20
scalar Network500.node390 	query_homogenity_rate 	33.333333333333
scalar Network500.node390 	qrecord_time 	48229.09642333
scalar Network500.node390 	discovery_resolution_rate 	100
scalar Network500.node90 	rate_of_requesters 	1
scalar Network500.node90 	number_of_resources 	27500
scalar Network500.node90 	time_period 	9
scalar Network500.node90 	number_of_messages 	42
scalar Network500.node90 	discovery_latency 	306
scalar Network500.node90 	number_of_desired_resources 	20
scalar Network500.node90 	query_homogenity_rate 	33.333333333333
scalar Network500.node90 	qrecord_time 	48556.816568634
scalar Network500.node90 	discovery_resolution_rate 	100
scalar Network500.node380 	rate_of_requesters 	1
scalar Network500.node380 	number_of_resources 	27500
scalar Network500.node380 	time_period 	9
scalar Network500.node380 	number_of_messages 	26
scalar Network500.node380 	discovery_latency 	246
scalar Network500.node380 	number_of_desired_resources 	20
scalar Network500.node380 	query_homogenity_rate 	33.333333333333
scalar Network500.node380 	qrecord_time 	48690.225367711
scalar Network500.node380 	discovery_resolution_rate 	100
scalar Network500.node350 	rate_of_requesters 	1
scalar Network500.node350 	number_of_resources 	27500
scalar Network500.node350 	time_period 	8
scalar Network500.node350 	number_of_messages 	51
scalar Network500.node350 	discovery_latency 	480
scalar Network500.node350 	number_of_desired_resources 	20
scalar Network500.node350 	query_homogenity_rate 	33.333333333333
scalar Network500.node350 	qrecord_time 	48832.643225148
scalar Network500.node350 	discovery_resolution_rate 	100
scalar Network500.node110 	rate_of_requesters 	1
scalar Network500.node110 	number_of_resources 	27500
scalar Network500.node110 	time_period 	10
scalar Network500.node110 	number_of_messages 	34
scalar Network500.node110 	discovery_latency 	330
scalar Network500.node110 	number_of_desired_resources 	20
scalar Network500.node110 	query_homogenity_rate 	33.333333333333
scalar Network500.node110 	qrecord_time 	48953.202204106
scalar Network500.node110 	discovery_resolution_rate 	100
scalar Network500.node10 	rate_of_requesters 	1
scalar Network500.node10 	number_of_resources 	27500
scalar Network500.node10 	time_period 	10
scalar Network500.node10 	number_of_messages 	152
scalar Network500.node10 	discovery_latency 	2628
scalar Network500.node10 	number_of_desired_resources 	20
scalar Network500.node10 	query_homogenity_rate 	33.333333333333
scalar Network500.node10 	qrecord_time 	48984.469203219
scalar Network500.node10 	discovery_resolution_rate 	83.333333333333
scalar Network500.node30 	rate_of_requesters 	1
scalar Network500.node30 	number_of_resources 	27500
scalar Network500.node30 	time_period 	10
scalar Network500.node30 	number_of_messages 	17
scalar Network500.node30 	discovery_latency 	83.999999999996
scalar Network500.node30 	number_of_desired_resources 	20
scalar Network500.node30 	query_homogenity_rate 	33.333333333333
scalar Network500.node30 	qrecord_time 	49090.214470655
scalar Network500.node30 	discovery_resolution_rate 	100
scalar Network500.node390 	rate_of_requesters 	1
scalar Network500.node390 	number_of_resources 	27500
scalar Network500.node390 	time_period 	8
scalar Network500.node390 	number_of_messages 	27
scalar Network500.node390 	discovery_latency 	294
scalar Network500.node390 	number_of_desired_resources 	20
scalar Network500.node390 	query_homogenity_rate 	33.333333333333
scalar Network500.node390 	qrecord_time 	49200.443197671
scalar Network500.node390 	discovery_resolution_rate 	100
scalar Network500.node280 	rate_of_requesters 	1
scalar Network500.node280 	number_of_resources 	27500
scalar Network500.node280 	time_period 	10
scalar Network500.node280 	number_of_messages 	266
scalar Network500.node280 	discovery_latency 	2886
scalar Network500.node280 	number_of_desired_resources 	20
scalar Network500.node280 	query_homogenity_rate 	33.333333333333
scalar Network500.node280 	qrecord_time 	49254.259464903
scalar Network500.node280 	discovery_resolution_rate 	66.666666666667
scalar Network500.node370 	rate_of_requesters 	1
scalar Network500.node370 	number_of_resources 	27500
scalar Network500.node370 	time_period 	10
scalar Network500.node370 	number_of_messages 	32
scalar Network500.node370 	discovery_latency 	252
scalar Network500.node370 	number_of_desired_resources 	20
scalar Network500.node370 	query_homogenity_rate 	33.333333333333
scalar Network500.node370 	qrecord_time 	49551.876862188
scalar Network500.node370 	discovery_resolution_rate 	100
scalar Network500.node190 	rate_of_requesters 	1
scalar Network500.node190 	number_of_resources 	27500
scalar Network500.node190 	time_period 	10
scalar Network500.node190 	number_of_messages 	17
scalar Network500.node190 	discovery_latency 	83.999999999996
scalar Network500.node190 	number_of_desired_resources 	20
scalar Network500.node190 	query_homogenity_rate 	33.333333333333
scalar Network500.node190 	qrecord_time 	49768.995246291
scalar Network500.node190 	discovery_resolution_rate 	100
scalar Network500.node430 	rate_of_requesters 	1
scalar Network500.node430 	number_of_resources 	27500
scalar Network500.node430 	time_period 	10
scalar Network500.node430 	number_of_messages 	40
scalar Network500.node430 	discovery_latency 	270
scalar Network500.node430 	number_of_desired_resources 	20
scalar Network500.node430 	query_homogenity_rate 	33.333333333333
scalar Network500.node430 	qrecord_time 	50098.389307627
scalar Network500.node430 	discovery_resolution_rate 	100
scalar Network500.node80 	rate_of_requesters 	1
scalar Network500.node80 	number_of_resources 	27500
scalar Network500.node80 	time_period 	10
scalar Network500.node80 	number_of_messages 	17
scalar Network500.node80 	discovery_latency 	132.00000000001
scalar Network500.node80 	number_of_desired_resources 	20
scalar Network500.node80 	query_homogenity_rate 	33.333333333333
scalar Network500.node80 	qrecord_time 	50388.209353572
scalar Network500.node80 	discovery_resolution_rate 	100
scalar Network500.node390 	rate_of_requesters 	1
scalar Network500.node390 	number_of_resources 	27500
scalar Network500.node390 	time_period 	9
scalar Network500.node390 	number_of_messages 	17
scalar Network500.node390 	discovery_latency 	89.999999999996
scalar Network500.node390 	number_of_desired_resources 	20
scalar Network500.node390 	query_homogenity_rate 	33.333333333333
scalar Network500.node390 	qrecord_time 	50969.823040014
scalar Network500.node390 	discovery_resolution_rate 	100
scalar Network500.node70 	rate_of_requesters 	1
scalar Network500.node70 	number_of_resources 	27500
scalar Network500.node70 	time_period 	10
scalar Network500.node70 	number_of_messages 	22
scalar Network500.node70 	discovery_latency 	144
scalar Network500.node70 	number_of_desired_resources 	20
scalar Network500.node70 	query_homogenity_rate 	33.333333333333
scalar Network500.node70 	qrecord_time 	51573.85080031
scalar Network500.node70 	discovery_resolution_rate 	100
scalar Network500.node380 	rate_of_requesters 	1
scalar Network500.node380 	number_of_resources 	27500
scalar Network500.node380 	time_period 	10
scalar Network500.node380 	number_of_messages 	28
scalar Network500.node380 	discovery_latency 	234
scalar Network500.node380 	number_of_desired_resources 	20
scalar Network500.node380 	query_homogenity_rate 	33.333333333333
scalar Network500.node380 	qrecord_time 	53187.775364768
scalar Network500.node380 	discovery_resolution_rate 	100
scalar Network500.node120 	rate_of_requesters 	1
scalar Network500.node120 	number_of_resources 	27500
scalar Network500.node120 	time_period 	9
scalar Network500.node120 	number_of_messages 	13
scalar Network500.node120 	discovery_latency 	71.999999999996
scalar Network500.node120 	number_of_desired_resources 	20
scalar Network500.node120 	query_homogenity_rate 	33.333333333333
scalar Network500.node120 	qrecord_time 	54633.803780333
scalar Network500.node120 	discovery_resolution_rate 	100
scalar Network500.node390 	rate_of_requesters 	1
scalar Network500.node390 	number_of_resources 	27500
scalar Network500.node390 	time_period 	10
scalar Network500.node390 	number_of_messages 	16
scalar Network500.node390 	discovery_latency 	89.999999999996
scalar Network500.node390 	number_of_desired_resources 	20
scalar Network500.node390 	query_homogenity_rate 	33.333333333333
scalar Network500.node390 	qrecord_time 	55790.99072789
scalar Network500.node390 	discovery_resolution_rate 	100
scalar Network500.node350 	rate_of_requesters 	1
scalar Network500.node350 	number_of_resources 	27500
scalar Network500.node350 	time_period 	9
scalar Network500.node350 	number_of_messages 	24
scalar Network500.node350 	discovery_latency 	210
scalar Network500.node350 	number_of_desired_resources 	20
scalar Network500.node350 	query_homogenity_rate 	33.333333333333
scalar Network500.node350 	qrecord_time 	56739.892060338
scalar Network500.node350 	discovery_resolution_rate 	100
scalar Network500.node240 	rate_of_requesters 	1
scalar Network500.node240 	number_of_resources 	27500
scalar Network500.node240 	time_period 	10
scalar Network500.node240 	number_of_messages 	23
scalar Network500.node240 	discovery_latency 	168
scalar Network500.node240 	number_of_desired_resources 	20
scalar Network500.node240 	query_homogenity_rate 	33.333333333333
scalar Network500.node240 	qrecord_time 	58270.876828794
scalar Network500.node240 	discovery_resolution_rate 	100
scalar Network500.node290 	rate_of_requesters 	1
scalar Network500.node290 	number_of_resources 	27500
scalar Network500.node290 	time_period 	10
scalar Network500.node290 	number_of_messages 	31
scalar Network500.node290 	discovery_latency 	270
scalar Network500.node290 	number_of_desired_resources 	20
scalar Network500.node290 	query_homogenity_rate 	33.333333333333
scalar Network500.node290 	qrecord_time 	60200.11833167
scalar Network500.node290 	discovery_resolution_rate 	100
scalar Network500.node350 	rate_of_requesters 	1
scalar Network500.node350 	number_of_resources 	27500
scalar Network500.node350 	time_period 	10
scalar Network500.node350 	number_of_messages 	24
scalar Network500.node350 	discovery_latency 	192
scalar Network500.node350 	number_of_desired_resources 	20
scalar Network500.node350 	query_homogenity_rate 	33.333333333333
scalar Network500.node350 	qrecord_time 	62518.154137291
scalar Network500.node350 	discovery_resolution_rate 	100
scalar Network500.node90 	rate_of_requesters 	1
scalar Network500.node90 	number_of_resources 	27500
scalar Network500.node90 	time_period 	10
scalar Network500.node90 	number_of_messages 	24
scalar Network500.node90 	discovery_latency 	156.00000000001
scalar Network500.node90 	number_of_desired_resources 	20
scalar Network500.node90 	query_homogenity_rate 	33.333333333333
scalar Network500.node90 	qrecord_time 	64377.0601363
scalar Network500.node90 	discovery_resolution_rate 	100
scalar Network500.node460 	rate_of_requesters 	1
scalar Network500.node460 	number_of_resources 	27500
scalar Network500.node460 	time_period 	10
scalar Network500.node460 	number_of_messages 	26
scalar Network500.node460 	discovery_latency 	191.99999999999
scalar Network500.node460 	number_of_desired_resources 	20
scalar Network500.node460 	query_homogenity_rate 	33.333333333333
scalar Network500.node460 	qrecord_time 	65935.184454754
scalar Network500.node460 	discovery_resolution_rate 	100
scalar Network500.node120 	rate_of_requesters 	1
scalar Network500.node120 	number_of_resources 	27500
scalar Network500.node120 	time_period 	10
scalar Network500.node120 	number_of_messages 	13
scalar Network500.node120 	discovery_latency 	72.000000000003
scalar Network500.node120 	number_of_desired_resources 	20
scalar Network500.node120 	query_homogenity_rate 	33.333333333333
scalar Network500.node120 	qrecord_time 	66524.206806496
scalar Network500.node120 	discovery_resolution_rate 	100
