version 2
run net700-289-20150319-02:13:44-2403
attr configname net700
attr datetime 20150319-02:13:44
attr dnor 15
attr experiment net700
attr inifile omnetpp.ini
attr iterationvars "$rhdrq=5, $dnor=15"
attr iterationvars2 "$rhdrq=5, $dnor=15, $repetition=9"
attr measurement "$rhdrq=5, $dnor=15"
attr network Network700
attr processid 2403
attr repetition 9
attr replication #9
attr resultdir results
attr rhdrq 5
attr runnumber 289
attr seedset 289

scalar . 	dnor 	15
scalar . 	rhdrq 	5
scalar Network700.node430 	rate_of_requesters 	1
scalar Network700.node430 	number_of_resources 	38500
scalar Network700.node430 	time_period 	1
scalar Network700.node430 	number_of_messages 	17
scalar Network700.node430 	discovery_latency 	66
scalar Network700.node430 	number_of_desired_resources 	15
scalar Network700.node430 	query_homogenity_rate 	20
scalar Network700.node430 	qrecord_time 	4822
scalar Network700.node430 	discovery_resolution_rate 	100
scalar Network700.node410 	rate_of_requesters 	1
scalar Network700.node410 	number_of_resources 	38500
scalar Network700.node410 	time_period 	1
scalar Network700.node410 	number_of_messages 	38
scalar Network700.node410 	discovery_latency 	204
scalar Network700.node410 	number_of_desired_resources 	15
scalar Network700.node410 	query_homogenity_rate 	20
scalar Network700.node410 	qrecord_time 	4870
scalar Network700.node410 	discovery_resolution_rate 	100
scalar Network700.node290 	rate_of_requesters 	1
scalar Network700.node290 	number_of_resources 	38500
scalar Network700.node290 	time_period 	1
scalar Network700.node290 	number_of_messages 	50
scalar Network700.node290 	discovery_latency 	204
scalar Network700.node290 	number_of_desired_resources 	15
scalar Network700.node290 	query_homogenity_rate 	20
scalar Network700.node290 	qrecord_time 	4912
scalar Network700.node290 	discovery_resolution_rate 	100
scalar Network700.node250 	rate_of_requesters 	1
scalar Network700.node250 	number_of_resources 	38500
scalar Network700.node250 	time_period 	1
scalar Network700.node250 	number_of_messages 	43
scalar Network700.node250 	discovery_latency 	210
scalar Network700.node250 	number_of_desired_resources 	15
scalar Network700.node250 	query_homogenity_rate 	20
scalar Network700.node250 	qrecord_time 	4924
scalar Network700.node250 	discovery_resolution_rate 	100
scalar Network700.node600 	rate_of_requesters 	1
scalar Network700.node600 	number_of_resources 	38500
scalar Network700.node600 	time_period 	1
scalar Network700.node600 	number_of_messages 	43
scalar Network700.node600 	discovery_latency 	216
scalar Network700.node600 	number_of_desired_resources 	15
scalar Network700.node600 	query_homogenity_rate 	20
scalar Network700.node600 	qrecord_time 	4924
scalar Network700.node600 	discovery_resolution_rate 	100
scalar Network700.node160 	rate_of_requesters 	1
scalar Network700.node160 	number_of_resources 	38500
scalar Network700.node160 	time_period 	1
scalar Network700.node160 	number_of_messages 	36
scalar Network700.node160 	discovery_latency 	204
scalar Network700.node160 	number_of_desired_resources 	15
scalar Network700.node160 	query_homogenity_rate 	20
scalar Network700.node160 	qrecord_time 	4924
scalar Network700.node160 	discovery_resolution_rate 	100
scalar Network700.node150 	rate_of_requesters 	1
scalar Network700.node150 	number_of_resources 	38500
scalar Network700.node150 	time_period 	1
scalar Network700.node150 	number_of_messages 	35
scalar Network700.node150 	discovery_latency 	138
scalar Network700.node150 	number_of_desired_resources 	15
scalar Network700.node150 	query_homogenity_rate 	20
scalar Network700.node150 	qrecord_time 	4948
scalar Network700.node150 	discovery_resolution_rate 	100
scalar Network700.node70 	rate_of_requesters 	1
scalar Network700.node70 	number_of_resources 	38500
scalar Network700.node70 	time_period 	1
scalar Network700.node70 	number_of_messages 	55
scalar Network700.node70 	discovery_latency 	252
scalar Network700.node70 	number_of_desired_resources 	15
scalar Network700.node70 	query_homogenity_rate 	20
scalar Network700.node70 	qrecord_time 	4948
scalar Network700.node70 	discovery_resolution_rate 	100
scalar Network700.node130 	rate_of_requesters 	1
scalar Network700.node130 	number_of_resources 	38500
scalar Network700.node130 	time_period 	1
scalar Network700.node130 	number_of_messages 	46
scalar Network700.node130 	discovery_latency 	276
scalar Network700.node130 	number_of_desired_resources 	15
scalar Network700.node130 	query_homogenity_rate 	20
scalar Network700.node130 	qrecord_time 	4972
scalar Network700.node130 	discovery_resolution_rate 	100
scalar Network700.node630 	rate_of_requesters 	1
scalar Network700.node630 	number_of_resources 	38500
scalar Network700.node630 	time_period 	1
scalar Network700.node630 	number_of_messages 	47
scalar Network700.node630 	discovery_latency 	264
scalar Network700.node630 	number_of_desired_resources 	15
scalar Network700.node630 	query_homogenity_rate 	20
scalar Network700.node630 	qrecord_time 	4990
scalar Network700.node630 	discovery_resolution_rate 	100
scalar Network700.node570 	rate_of_requesters 	1
scalar Network700.node570 	number_of_resources 	38500
scalar Network700.node570 	time_period 	1
scalar Network700.node570 	number_of_messages 	67
scalar Network700.node570 	discovery_latency 	324
scalar Network700.node570 	number_of_desired_resources 	15
scalar Network700.node570 	query_homogenity_rate 	20
scalar Network700.node570 	qrecord_time 	5008
scalar Network700.node570 	discovery_resolution_rate 	100
scalar Network700.node540 	rate_of_requesters 	1
scalar Network700.node540 	number_of_resources 	38500
scalar Network700.node540 	time_period 	1
scalar Network700.node540 	number_of_messages 	64
scalar Network700.node540 	discovery_latency 	360
scalar Network700.node540 	number_of_desired_resources 	15
scalar Network700.node540 	query_homogenity_rate 	20
scalar Network700.node540 	qrecord_time 	5026
scalar Network700.node540 	discovery_resolution_rate 	100
scalar Network700.node350 	rate_of_requesters 	1
scalar Network700.node350 	number_of_resources 	38500
scalar Network700.node350 	time_period 	1
scalar Network700.node350 	number_of_messages 	55
scalar Network700.node350 	discovery_latency 	318
scalar Network700.node350 	number_of_desired_resources 	15
scalar Network700.node350 	query_homogenity_rate 	20
scalar Network700.node350 	qrecord_time 	5032
scalar Network700.node350 	discovery_resolution_rate 	100
scalar Network700.node590 	rate_of_requesters 	1
scalar Network700.node590 	number_of_resources 	38500
scalar Network700.node590 	time_period 	1
scalar Network700.node590 	number_of_messages 	74
scalar Network700.node590 	discovery_latency 	324
scalar Network700.node590 	number_of_desired_resources 	15
scalar Network700.node590 	query_homogenity_rate 	20
scalar Network700.node590 	qrecord_time 	5038
scalar Network700.node590 	discovery_resolution_rate 	100
scalar Network700.node0 	rate_of_requesters 	1
scalar Network700.node0 	number_of_resources 	38500
scalar Network700.node0 	time_period 	1
scalar Network700.node0 	number_of_messages 	37
scalar Network700.node0 	discovery_latency 	324
scalar Network700.node0 	number_of_desired_resources 	15
scalar Network700.node0 	query_homogenity_rate 	20
scalar Network700.node0 	qrecord_time 	5062
scalar Network700.node0 	discovery_resolution_rate 	100
scalar Network700.node230 	rate_of_requesters 	1
scalar Network700.node230 	number_of_resources 	38500
scalar Network700.node230 	time_period 	1
scalar Network700.node230 	number_of_messages 	46
scalar Network700.node230 	discovery_latency 	348
scalar Network700.node230 	number_of_desired_resources 	15
scalar Network700.node230 	query_homogenity_rate 	20
scalar Network700.node230 	qrecord_time 	5086
scalar Network700.node230 	discovery_resolution_rate 	100
scalar Network700.node550 	rate_of_requesters 	1
scalar Network700.node550 	number_of_resources 	38500
scalar Network700.node550 	time_period 	1
scalar Network700.node550 	number_of_messages 	56
scalar Network700.node550 	discovery_latency 	396
scalar Network700.node550 	number_of_desired_resources 	15
scalar Network700.node550 	query_homogenity_rate 	20
scalar Network700.node550 	qrecord_time 	5086
scalar Network700.node550 	discovery_resolution_rate 	100
scalar Network700.node280 	rate_of_requesters 	1
scalar Network700.node280 	number_of_resources 	38500
scalar Network700.node280 	time_period 	1
scalar Network700.node280 	number_of_messages 	61
scalar Network700.node280 	discovery_latency 	408
scalar Network700.node280 	number_of_desired_resources 	15
scalar Network700.node280 	query_homogenity_rate 	20
scalar Network700.node280 	qrecord_time 	5098
scalar Network700.node280 	discovery_resolution_rate 	100
scalar Network700.node270 	rate_of_requesters 	1
scalar Network700.node270 	number_of_resources 	38500
scalar Network700.node270 	time_period 	1
scalar Network700.node270 	number_of_messages 	57
scalar Network700.node270 	discovery_latency 	396
scalar Network700.node270 	number_of_desired_resources 	15
scalar Network700.node270 	query_homogenity_rate 	20
scalar Network700.node270 	qrecord_time 	5104
scalar Network700.node270 	discovery_resolution_rate 	100
scalar Network700.node10 	rate_of_requesters 	1
scalar Network700.node10 	number_of_resources 	38500
scalar Network700.node10 	time_period 	1
scalar Network700.node10 	number_of_messages 	64
scalar Network700.node10 	discovery_latency 	444
scalar Network700.node10 	number_of_desired_resources 	15
scalar Network700.node10 	query_homogenity_rate 	20
scalar Network700.node10 	qrecord_time 	5134
scalar Network700.node10 	discovery_resolution_rate 	100
scalar Network700.node650 	rate_of_requesters 	1
scalar Network700.node650 	number_of_resources 	38500
scalar Network700.node650 	time_period 	1
scalar Network700.node650 	number_of_messages 	63
scalar Network700.node650 	discovery_latency 	408
scalar Network700.node650 	number_of_desired_resources 	15
scalar Network700.node650 	query_homogenity_rate 	20
scalar Network700.node650 	qrecord_time 	5140
scalar Network700.node650 	discovery_resolution_rate 	100
scalar Network700.node610 	rate_of_requesters 	1
scalar Network700.node610 	number_of_resources 	38500
scalar Network700.node610 	time_period 	1
scalar Network700.node610 	number_of_messages 	67
scalar Network700.node610 	discovery_latency 	444
scalar Network700.node610 	number_of_desired_resources 	15
scalar Network700.node610 	query_homogenity_rate 	20
scalar Network700.node610 	qrecord_time 	5170
scalar Network700.node610 	discovery_resolution_rate 	100
scalar Network700.node220 	rate_of_requesters 	1
scalar Network700.node220 	number_of_resources 	38500
scalar Network700.node220 	time_period 	1
scalar Network700.node220 	number_of_messages 	63
scalar Network700.node220 	discovery_latency 	462
scalar Network700.node220 	number_of_desired_resources 	15
scalar Network700.node220 	query_homogenity_rate 	20
scalar Network700.node220 	qrecord_time 	5176
scalar Network700.node220 	discovery_resolution_rate 	100
scalar Network700.node200 	rate_of_requesters 	1
scalar Network700.node200 	number_of_resources 	38500
scalar Network700.node200 	time_period 	1
scalar Network700.node200 	number_of_messages 	61
scalar Network700.node200 	discovery_latency 	456
scalar Network700.node200 	number_of_desired_resources 	15
scalar Network700.node200 	query_homogenity_rate 	20
scalar Network700.node200 	qrecord_time 	5194
scalar Network700.node200 	discovery_resolution_rate 	100
scalar Network700.node680 	rate_of_requesters 	1
scalar Network700.node680 	number_of_resources 	38500
scalar Network700.node680 	time_period 	1
scalar Network700.node680 	number_of_messages 	66
scalar Network700.node680 	discovery_latency 	522
scalar Network700.node680 	number_of_desired_resources 	15
scalar Network700.node680 	query_homogenity_rate 	20
scalar Network700.node680 	qrecord_time 	5206
scalar Network700.node680 	discovery_resolution_rate 	100
scalar Network700.node80 	rate_of_requesters 	1
scalar Network700.node80 	number_of_resources 	38500
scalar Network700.node80 	time_period 	1
scalar Network700.node80 	number_of_messages 	58
scalar Network700.node80 	discovery_latency 	528
scalar Network700.node80 	number_of_desired_resources 	15
scalar Network700.node80 	query_homogenity_rate 	20
scalar Network700.node80 	qrecord_time 	5218
scalar Network700.node80 	discovery_resolution_rate 	100
scalar Network700.node30 	rate_of_requesters 	1
scalar Network700.node30 	number_of_resources 	38500
scalar Network700.node30 	time_period 	1
scalar Network700.node30 	number_of_messages 	50
scalar Network700.node30 	discovery_latency 	504
scalar Network700.node30 	number_of_desired_resources 	15
scalar Network700.node30 	query_homogenity_rate 	20
scalar Network700.node30 	qrecord_time 	5236
scalar Network700.node30 	discovery_resolution_rate 	100
scalar Network700.node50 	rate_of_requesters 	1
scalar Network700.node50 	number_of_resources 	38500
scalar Network700.node50 	time_period 	1
scalar Network700.node50 	number_of_messages 	76
scalar Network700.node50 	discovery_latency 	450
scalar Network700.node50 	number_of_desired_resources 	15
scalar Network700.node50 	query_homogenity_rate 	20
scalar Network700.node50 	qrecord_time 	5242
scalar Network700.node50 	discovery_resolution_rate 	100
scalar Network700.node560 	rate_of_requesters 	1
scalar Network700.node560 	number_of_resources 	38500
scalar Network700.node560 	time_period 	1
scalar Network700.node560 	number_of_messages 	71
scalar Network700.node560 	discovery_latency 	498
scalar Network700.node560 	number_of_desired_resources 	15
scalar Network700.node560 	query_homogenity_rate 	20
scalar Network700.node560 	qrecord_time 	5254
scalar Network700.node560 	discovery_resolution_rate 	100
scalar Network700.node370 	rate_of_requesters 	1
scalar Network700.node370 	number_of_resources 	38500
scalar Network700.node370 	time_period 	1
scalar Network700.node370 	number_of_messages 	71
scalar Network700.node370 	discovery_latency 	528
scalar Network700.node370 	number_of_desired_resources 	15
scalar Network700.node370 	query_homogenity_rate 	20
scalar Network700.node370 	qrecord_time 	5260
scalar Network700.node370 	discovery_resolution_rate 	100
scalar Network700.node90 	rate_of_requesters 	1
scalar Network700.node90 	number_of_resources 	38500
scalar Network700.node90 	time_period 	1
scalar Network700.node90 	number_of_messages 	77
scalar Network700.node90 	discovery_latency 	528
scalar Network700.node90 	number_of_desired_resources 	15
scalar Network700.node90 	query_homogenity_rate 	20
scalar Network700.node90 	qrecord_time 	5260
scalar Network700.node90 	discovery_resolution_rate 	100
scalar Network700.node140 	rate_of_requesters 	1
scalar Network700.node140 	number_of_resources 	38500
scalar Network700.node140 	time_period 	1
scalar Network700.node140 	number_of_messages 	71
scalar Network700.node140 	discovery_latency 	486
scalar Network700.node140 	number_of_desired_resources 	15
scalar Network700.node140 	query_homogenity_rate 	20
scalar Network700.node140 	qrecord_time 	5260
scalar Network700.node140 	discovery_resolution_rate 	100
scalar Network700.node20 	rate_of_requesters 	1
scalar Network700.node20 	number_of_resources 	38500
scalar Network700.node20 	time_period 	1
scalar Network700.node20 	number_of_messages 	102
scalar Network700.node20 	discovery_latency 	612
scalar Network700.node20 	number_of_desired_resources 	15
scalar Network700.node20 	query_homogenity_rate 	20
scalar Network700.node20 	qrecord_time 	5278
scalar Network700.node20 	discovery_resolution_rate 	100
scalar Network700.node170 	rate_of_requesters 	1
scalar Network700.node170 	number_of_resources 	38500
scalar Network700.node170 	time_period 	1
scalar Network700.node170 	number_of_messages 	53
scalar Network700.node170 	discovery_latency 	528
scalar Network700.node170 	number_of_desired_resources 	15
scalar Network700.node170 	query_homogenity_rate 	20
scalar Network700.node170 	qrecord_time 	5284
scalar Network700.node170 	discovery_resolution_rate 	100
scalar Network700.node480 	rate_of_requesters 	1
scalar Network700.node480 	number_of_resources 	38500
scalar Network700.node480 	time_period 	1
scalar Network700.node480 	number_of_messages 	71
scalar Network700.node480 	discovery_latency 	534
scalar Network700.node480 	number_of_desired_resources 	15
scalar Network700.node480 	query_homogenity_rate 	20
scalar Network700.node480 	qrecord_time 	5326
scalar Network700.node480 	discovery_resolution_rate 	100
scalar Network700.node460 	rate_of_requesters 	1
scalar Network700.node460 	number_of_resources 	38500
scalar Network700.node460 	time_period 	1
scalar Network700.node460 	number_of_messages 	100
scalar Network700.node460 	discovery_latency 	618
scalar Network700.node460 	number_of_desired_resources 	15
scalar Network700.node460 	query_homogenity_rate 	20
scalar Network700.node460 	qrecord_time 	5326
scalar Network700.node460 	discovery_resolution_rate 	100
scalar Network700.node500 	rate_of_requesters 	1
scalar Network700.node500 	number_of_resources 	38500
scalar Network700.node500 	time_period 	1
scalar Network700.node500 	number_of_messages 	77
scalar Network700.node500 	discovery_latency 	606
scalar Network700.node500 	number_of_desired_resources 	15
scalar Network700.node500 	query_homogenity_rate 	20
scalar Network700.node500 	qrecord_time 	5332
scalar Network700.node500 	discovery_resolution_rate 	100
scalar Network700.node260 	rate_of_requesters 	1
scalar Network700.node260 	number_of_resources 	38500
scalar Network700.node260 	time_period 	1
scalar Network700.node260 	number_of_messages 	83
scalar Network700.node260 	discovery_latency 	630
scalar Network700.node260 	number_of_desired_resources 	15
scalar Network700.node260 	query_homogenity_rate 	20
scalar Network700.node260 	qrecord_time 	5344
scalar Network700.node260 	discovery_resolution_rate 	100
scalar Network700.node470 	rate_of_requesters 	1
scalar Network700.node470 	number_of_resources 	38500
scalar Network700.node470 	time_period 	1
scalar Network700.node470 	number_of_messages 	104
scalar Network700.node470 	discovery_latency 	630
scalar Network700.node470 	number_of_desired_resources 	15
scalar Network700.node470 	query_homogenity_rate 	20
scalar Network700.node470 	qrecord_time 	5344
scalar Network700.node470 	discovery_resolution_rate 	100
scalar Network700.node40 	rate_of_requesters 	1
scalar Network700.node40 	number_of_resources 	38500
scalar Network700.node40 	time_period 	1
scalar Network700.node40 	number_of_messages 	92
scalar Network700.node40 	discovery_latency 	630
scalar Network700.node40 	number_of_desired_resources 	15
scalar Network700.node40 	query_homogenity_rate 	20
scalar Network700.node40 	qrecord_time 	5350
scalar Network700.node40 	discovery_resolution_rate 	100
scalar Network700.node240 	rate_of_requesters 	1
scalar Network700.node240 	number_of_resources 	38500
scalar Network700.node240 	time_period 	1
scalar Network700.node240 	number_of_messages 	71
scalar Network700.node240 	discovery_latency 	534
scalar Network700.node240 	number_of_desired_resources 	15
scalar Network700.node240 	query_homogenity_rate 	20
scalar Network700.node240 	qrecord_time 	5368
scalar Network700.node240 	discovery_resolution_rate 	100
scalar Network700.node120 	rate_of_requesters 	1
scalar Network700.node120 	number_of_resources 	38500
scalar Network700.node120 	time_period 	1
scalar Network700.node120 	number_of_messages 	85
scalar Network700.node120 	discovery_latency 	648
scalar Network700.node120 	number_of_desired_resources 	15
scalar Network700.node120 	query_homogenity_rate 	20
scalar Network700.node120 	qrecord_time 	5380
scalar Network700.node120 	discovery_resolution_rate 	100
scalar Network700.node450 	rate_of_requesters 	1
scalar Network700.node450 	number_of_resources 	38500
scalar Network700.node450 	time_period 	1
scalar Network700.node450 	number_of_messages 	149
scalar Network700.node450 	discovery_latency 	624
scalar Network700.node450 	number_of_desired_resources 	15
scalar Network700.node450 	query_homogenity_rate 	20
scalar Network700.node450 	qrecord_time 	5392
scalar Network700.node450 	discovery_resolution_rate 	100
scalar Network700.node640 	rate_of_requesters 	1
scalar Network700.node640 	number_of_resources 	38500
scalar Network700.node640 	time_period 	1
scalar Network700.node640 	number_of_messages 	85
scalar Network700.node640 	discovery_latency 	624
scalar Network700.node640 	number_of_desired_resources 	15
scalar Network700.node640 	query_homogenity_rate 	20
scalar Network700.node640 	qrecord_time 	5398
scalar Network700.node640 	discovery_resolution_rate 	100
scalar Network700.node380 	rate_of_requesters 	1
scalar Network700.node380 	number_of_resources 	38500
scalar Network700.node380 	time_period 	1
scalar Network700.node380 	number_of_messages 	102
scalar Network700.node380 	discovery_latency 	684
scalar Network700.node380 	number_of_desired_resources 	15
scalar Network700.node380 	query_homogenity_rate 	20
scalar Network700.node380 	qrecord_time 	5404
scalar Network700.node380 	discovery_resolution_rate 	100
scalar Network700.node330 	rate_of_requesters 	1
scalar Network700.node330 	number_of_resources 	38500
scalar Network700.node330 	time_period 	1
scalar Network700.node330 	number_of_messages 	107
scalar Network700.node330 	discovery_latency 	672
scalar Network700.node330 	number_of_desired_resources 	15
scalar Network700.node330 	query_homogenity_rate 	20
scalar Network700.node330 	qrecord_time 	5422
scalar Network700.node330 	discovery_resolution_rate 	100
scalar Network700.node210 	rate_of_requesters 	1
scalar Network700.node210 	number_of_resources 	38500
scalar Network700.node210 	time_period 	1
scalar Network700.node210 	number_of_messages 	174
scalar Network700.node210 	discovery_latency 	762
scalar Network700.node210 	number_of_desired_resources 	15
scalar Network700.node210 	query_homogenity_rate 	20
scalar Network700.node210 	qrecord_time 	5470
scalar Network700.node210 	discovery_resolution_rate 	100
scalar Network700.node300 	rate_of_requesters 	1
scalar Network700.node300 	number_of_resources 	38500
scalar Network700.node300 	time_period 	1
scalar Network700.node300 	number_of_messages 	143
scalar Network700.node300 	discovery_latency 	822
scalar Network700.node300 	number_of_desired_resources 	15
scalar Network700.node300 	query_homogenity_rate 	20
scalar Network700.node300 	qrecord_time 	5488
scalar Network700.node300 	discovery_resolution_rate 	100
scalar Network700.node620 	rate_of_requesters 	1
scalar Network700.node620 	number_of_resources 	38500
scalar Network700.node620 	time_period 	1
scalar Network700.node620 	number_of_messages 	147
scalar Network700.node620 	discovery_latency 	828
scalar Network700.node620 	number_of_desired_resources 	15
scalar Network700.node620 	query_homogenity_rate 	20
scalar Network700.node620 	qrecord_time 	5494
scalar Network700.node620 	discovery_resolution_rate 	100
scalar Network700.node180 	rate_of_requesters 	1
scalar Network700.node180 	number_of_resources 	38500
scalar Network700.node180 	time_period 	1
scalar Network700.node180 	number_of_messages 	70
scalar Network700.node180 	discovery_latency 	720
scalar Network700.node180 	number_of_desired_resources 	15
scalar Network700.node180 	query_homogenity_rate 	20
scalar Network700.node180 	qrecord_time 	5494
scalar Network700.node180 	discovery_resolution_rate 	100
scalar Network700.node190 	rate_of_requesters 	1
scalar Network700.node190 	number_of_resources 	38500
scalar Network700.node190 	time_period 	1
scalar Network700.node190 	number_of_messages 	81
scalar Network700.node190 	discovery_latency 	828
scalar Network700.node190 	number_of_desired_resources 	15
scalar Network700.node190 	query_homogenity_rate 	20
scalar Network700.node190 	qrecord_time 	5494
scalar Network700.node190 	discovery_resolution_rate 	100
scalar Network700.node690 	rate_of_requesters 	1
scalar Network700.node690 	number_of_resources 	38500
scalar Network700.node690 	time_period 	1
scalar Network700.node690 	number_of_messages 	69
scalar Network700.node690 	discovery_latency 	756
scalar Network700.node690 	number_of_desired_resources 	15
scalar Network700.node690 	query_homogenity_rate 	20
scalar Network700.node690 	qrecord_time 	5512
scalar Network700.node690 	discovery_resolution_rate 	100
scalar Network700.node390 	rate_of_requesters 	1
scalar Network700.node390 	number_of_resources 	38500
scalar Network700.node390 	time_period 	1
scalar Network700.node390 	number_of_messages 	94
scalar Network700.node390 	discovery_latency 	720
scalar Network700.node390 	number_of_desired_resources 	15
scalar Network700.node390 	query_homogenity_rate 	20
scalar Network700.node390 	qrecord_time 	5512
scalar Network700.node390 	discovery_resolution_rate 	100
scalar Network700.node660 	rate_of_requesters 	1
scalar Network700.node660 	number_of_resources 	38500
scalar Network700.node660 	time_period 	1
scalar Network700.node660 	number_of_messages 	130
scalar Network700.node660 	discovery_latency 	744
scalar Network700.node660 	number_of_desired_resources 	15
scalar Network700.node660 	query_homogenity_rate 	20
scalar Network700.node660 	qrecord_time 	5512
scalar Network700.node660 	discovery_resolution_rate 	100
scalar Network700.node110 	rate_of_requesters 	1
scalar Network700.node110 	number_of_resources 	38500
scalar Network700.node110 	time_period 	1
scalar Network700.node110 	number_of_messages 	110
scalar Network700.node110 	discovery_latency 	744
scalar Network700.node110 	number_of_desired_resources 	15
scalar Network700.node110 	query_homogenity_rate 	20
scalar Network700.node110 	qrecord_time 	5518
scalar Network700.node110 	discovery_resolution_rate 	100
scalar Network700.node400 	rate_of_requesters 	1
scalar Network700.node400 	number_of_resources 	38500
scalar Network700.node400 	time_period 	1
scalar Network700.node400 	number_of_messages 	148
scalar Network700.node400 	discovery_latency 	774
scalar Network700.node400 	number_of_desired_resources 	15
scalar Network700.node400 	query_homogenity_rate 	20
scalar Network700.node400 	qrecord_time 	5524
scalar Network700.node400 	discovery_resolution_rate 	100
scalar Network700.node60 	rate_of_requesters 	1
scalar Network700.node60 	number_of_resources 	38500
scalar Network700.node60 	time_period 	1
scalar Network700.node60 	number_of_messages 	124
scalar Network700.node60 	discovery_latency 	822
scalar Network700.node60 	number_of_desired_resources 	15
scalar Network700.node60 	query_homogenity_rate 	20
scalar Network700.node60 	qrecord_time 	5530
scalar Network700.node60 	discovery_resolution_rate 	100
scalar Network700.node320 	rate_of_requesters 	1
scalar Network700.node320 	number_of_resources 	38500
scalar Network700.node320 	time_period 	1
scalar Network700.node320 	number_of_messages 	111
scalar Network700.node320 	discovery_latency 	834
scalar Network700.node320 	number_of_desired_resources 	15
scalar Network700.node320 	query_homogenity_rate 	20
scalar Network700.node320 	qrecord_time 	5530
scalar Network700.node320 	discovery_resolution_rate 	100
scalar Network700.node490 	rate_of_requesters 	1
scalar Network700.node490 	number_of_resources 	38500
scalar Network700.node490 	time_period 	1
scalar Network700.node490 	number_of_messages 	98
scalar Network700.node490 	discovery_latency 	870
scalar Network700.node490 	number_of_desired_resources 	15
scalar Network700.node490 	query_homogenity_rate 	20
scalar Network700.node490 	qrecord_time 	5554
scalar Network700.node490 	discovery_resolution_rate 	100
scalar Network700.node520 	rate_of_requesters 	1
scalar Network700.node520 	number_of_resources 	38500
scalar Network700.node520 	time_period 	1
scalar Network700.node520 	number_of_messages 	89
scalar Network700.node520 	discovery_latency 	804
scalar Network700.node520 	number_of_desired_resources 	15
scalar Network700.node520 	query_homogenity_rate 	20
scalar Network700.node520 	qrecord_time 	5554
scalar Network700.node520 	discovery_resolution_rate 	100
scalar Network700.node670 	rate_of_requesters 	1
scalar Network700.node670 	number_of_resources 	38500
scalar Network700.node670 	time_period 	1
scalar Network700.node670 	number_of_messages 	100
scalar Network700.node670 	discovery_latency 	864
scalar Network700.node670 	number_of_desired_resources 	15
scalar Network700.node670 	query_homogenity_rate 	20
scalar Network700.node670 	qrecord_time 	5560
scalar Network700.node670 	discovery_resolution_rate 	100
scalar Network700.node420 	rate_of_requesters 	1
scalar Network700.node420 	number_of_resources 	38500
scalar Network700.node420 	time_period 	1
scalar Network700.node420 	number_of_messages 	118
scalar Network700.node420 	discovery_latency 	930
scalar Network700.node420 	number_of_desired_resources 	15
scalar Network700.node420 	query_homogenity_rate 	20
scalar Network700.node420 	qrecord_time 	5578
scalar Network700.node420 	discovery_resolution_rate 	100
scalar Network700.node310 	rate_of_requesters 	1
scalar Network700.node310 	number_of_resources 	38500
scalar Network700.node310 	time_period 	1
scalar Network700.node310 	number_of_messages 	125
scalar Network700.node310 	discovery_latency 	858
scalar Network700.node310 	number_of_desired_resources 	15
scalar Network700.node310 	query_homogenity_rate 	20
scalar Network700.node310 	qrecord_time 	5584
scalar Network700.node310 	discovery_resolution_rate 	100
scalar Network700.node530 	rate_of_requesters 	1
scalar Network700.node530 	number_of_resources 	38500
scalar Network700.node530 	time_period 	1
scalar Network700.node530 	number_of_messages 	126
scalar Network700.node530 	discovery_latency 	870
scalar Network700.node530 	number_of_desired_resources 	15
scalar Network700.node530 	query_homogenity_rate 	20
scalar Network700.node530 	qrecord_time 	5584
scalar Network700.node530 	discovery_resolution_rate 	100
scalar Network700.node580 	rate_of_requesters 	1
scalar Network700.node580 	number_of_resources 	38500
scalar Network700.node580 	time_period 	1
scalar Network700.node580 	number_of_messages 	91
scalar Network700.node580 	discovery_latency 	852
scalar Network700.node580 	number_of_desired_resources 	15
scalar Network700.node580 	query_homogenity_rate 	20
scalar Network700.node580 	qrecord_time 	5584
scalar Network700.node580 	discovery_resolution_rate 	100
scalar Network700.node440 	rate_of_requesters 	1
scalar Network700.node440 	number_of_resources 	38500
scalar Network700.node440 	time_period 	1
scalar Network700.node440 	number_of_messages 	151
scalar Network700.node440 	discovery_latency 	894
scalar Network700.node440 	number_of_desired_resources 	15
scalar Network700.node440 	query_homogenity_rate 	20
scalar Network700.node440 	qrecord_time 	5602
scalar Network700.node440 	discovery_resolution_rate 	100
scalar Network700.node360 	rate_of_requesters 	1
scalar Network700.node360 	number_of_resources 	38500
scalar Network700.node360 	time_period 	1
scalar Network700.node360 	number_of_messages 	73
scalar Network700.node360 	discovery_latency 	864
scalar Network700.node360 	number_of_desired_resources 	15
scalar Network700.node360 	query_homogenity_rate 	20
scalar Network700.node360 	qrecord_time 	5614
scalar Network700.node360 	discovery_resolution_rate 	100
scalar Network700.node510 	rate_of_requesters 	1
scalar Network700.node510 	number_of_resources 	38500
scalar Network700.node510 	time_period 	1
scalar Network700.node510 	number_of_messages 	88
scalar Network700.node510 	discovery_latency 	852
scalar Network700.node510 	number_of_desired_resources 	15
scalar Network700.node510 	query_homogenity_rate 	20
scalar Network700.node510 	qrecord_time 	5620
scalar Network700.node510 	discovery_resolution_rate 	100
scalar Network700.node100 	rate_of_requesters 	1
scalar Network700.node100 	number_of_resources 	38500
scalar Network700.node100 	time_period 	1
scalar Network700.node100 	number_of_messages 	155
scalar Network700.node100 	discovery_latency 	966
scalar Network700.node100 	number_of_desired_resources 	15
scalar Network700.node100 	query_homogenity_rate 	20
scalar Network700.node100 	qrecord_time 	5650
scalar Network700.node100 	discovery_resolution_rate 	100
scalar Network700.node340 	rate_of_requesters 	1
scalar Network700.node340 	number_of_resources 	38500
scalar Network700.node340 	time_period 	1
scalar Network700.node340 	number_of_messages 	161
scalar Network700.node340 	discovery_latency 	966
scalar Network700.node340 	number_of_desired_resources 	15
scalar Network700.node340 	query_homogenity_rate 	20
scalar Network700.node340 	qrecord_time 	5650
scalar Network700.node340 	discovery_resolution_rate 	100
scalar Network700.node410 	rate_of_requesters 	1
scalar Network700.node410 	number_of_resources 	38500
scalar Network700.node410 	time_period 	2
scalar Network700.node410 	number_of_messages 	33
scalar Network700.node410 	discovery_latency 	126
scalar Network700.node410 	number_of_desired_resources 	15
scalar Network700.node410 	query_homogenity_rate 	20
scalar Network700.node410 	qrecord_time 	6792
scalar Network700.node410 	discovery_resolution_rate 	100
scalar Network700.node420 	rate_of_requesters 	1
scalar Network700.node420 	number_of_resources 	38500
scalar Network700.node420 	time_period 	2
scalar Network700.node420 	number_of_messages 	40
scalar Network700.node420 	discovery_latency 	168
scalar Network700.node420 	number_of_desired_resources 	15
scalar Network700.node420 	query_homogenity_rate 	20
scalar Network700.node420 	qrecord_time 	6816
scalar Network700.node420 	discovery_resolution_rate 	100
scalar Network700.node430 	rate_of_requesters 	1
scalar Network700.node430 	number_of_resources 	38500
scalar Network700.node430 	time_period 	2
scalar Network700.node430 	number_of_messages 	17
scalar Network700.node430 	discovery_latency 	66
scalar Network700.node430 	number_of_desired_resources 	15
scalar Network700.node430 	query_homogenity_rate 	20
scalar Network700.node430 	qrecord_time 	6822
scalar Network700.node430 	discovery_resolution_rate 	100
scalar Network700.node490 	rate_of_requesters 	1
scalar Network700.node490 	number_of_resources 	38500
scalar Network700.node490 	time_period 	2
scalar Network700.node490 	number_of_messages 	39
scalar Network700.node490 	discovery_latency 	156
scalar Network700.node490 	number_of_desired_resources 	15
scalar Network700.node490 	query_homogenity_rate 	20
scalar Network700.node490 	qrecord_time 	6840
scalar Network700.node490 	discovery_resolution_rate 	100
scalar Network700.node10 	rate_of_requesters 	1
scalar Network700.node10 	number_of_resources 	38500
scalar Network700.node10 	time_period 	2
scalar Network700.node10 	number_of_messages 	34
scalar Network700.node10 	discovery_latency 	156
scalar Network700.node10 	number_of_desired_resources 	15
scalar Network700.node10 	query_homogenity_rate 	20
scalar Network700.node10 	qrecord_time 	6846
scalar Network700.node10 	discovery_resolution_rate 	100
scalar Network700.node80 	rate_of_requesters 	1
scalar Network700.node80 	number_of_resources 	38500
scalar Network700.node80 	time_period 	2
scalar Network700.node80 	number_of_messages 	30
scalar Network700.node80 	discovery_latency 	156
scalar Network700.node80 	number_of_desired_resources 	15
scalar Network700.node80 	query_homogenity_rate 	20
scalar Network700.node80 	qrecord_time 	6846
scalar Network700.node80 	discovery_resolution_rate 	100
scalar Network700.node70 	rate_of_requesters 	1
scalar Network700.node70 	number_of_resources 	38500
scalar Network700.node70 	time_period 	2
scalar Network700.node70 	number_of_messages 	34
scalar Network700.node70 	discovery_latency 	156
scalar Network700.node70 	number_of_desired_resources 	15
scalar Network700.node70 	query_homogenity_rate 	20
scalar Network700.node70 	qrecord_time 	6852
scalar Network700.node70 	discovery_resolution_rate 	100
scalar Network700.node130 	rate_of_requesters 	1
scalar Network700.node130 	number_of_resources 	38500
scalar Network700.node130 	time_period 	2
scalar Network700.node130 	number_of_messages 	28
scalar Network700.node130 	discovery_latency 	156
scalar Network700.node130 	number_of_desired_resources 	15
scalar Network700.node130 	query_homogenity_rate 	20
scalar Network700.node130 	qrecord_time 	6852
scalar Network700.node130 	discovery_resolution_rate 	100
scalar Network700.node570 	rate_of_requesters 	1
scalar Network700.node570 	number_of_resources 	38500
scalar Network700.node570 	time_period 	2
scalar Network700.node570 	number_of_messages 	42
scalar Network700.node570 	discovery_latency 	168
scalar Network700.node570 	number_of_desired_resources 	15
scalar Network700.node570 	query_homogenity_rate 	20
scalar Network700.node570 	qrecord_time 	6852
scalar Network700.node570 	discovery_resolution_rate 	100
scalar Network700.node120 	rate_of_requesters 	1
scalar Network700.node120 	number_of_resources 	38500
scalar Network700.node120 	time_period 	2
scalar Network700.node120 	number_of_messages 	29
scalar Network700.node120 	discovery_latency 	132
scalar Network700.node120 	number_of_desired_resources 	15
scalar Network700.node120 	query_homogenity_rate 	20
scalar Network700.node120 	qrecord_time 	6864
scalar Network700.node120 	discovery_resolution_rate 	100
scalar Network700.node360 	rate_of_requesters 	1
scalar Network700.node360 	number_of_resources 	38500
scalar Network700.node360 	time_period 	2
scalar Network700.node360 	number_of_messages 	28
scalar Network700.node360 	discovery_latency 	120
scalar Network700.node360 	number_of_desired_resources 	15
scalar Network700.node360 	query_homogenity_rate 	20
scalar Network700.node360 	qrecord_time 	6870
scalar Network700.node360 	discovery_resolution_rate 	100
scalar Network700.node20 	rate_of_requesters 	1
scalar Network700.node20 	number_of_resources 	38500
scalar Network700.node20 	time_period 	2
scalar Network700.node20 	number_of_messages 	51
scalar Network700.node20 	discovery_latency 	222
scalar Network700.node20 	number_of_desired_resources 	15
scalar Network700.node20 	query_homogenity_rate 	20
scalar Network700.node20 	qrecord_time 	6888
scalar Network700.node20 	discovery_resolution_rate 	100
scalar Network700.node190 	rate_of_requesters 	1
scalar Network700.node190 	number_of_resources 	38500
scalar Network700.node190 	time_period 	2
scalar Network700.node190 	number_of_messages 	51
scalar Network700.node190 	discovery_latency 	222
scalar Network700.node190 	number_of_desired_resources 	15
scalar Network700.node190 	query_homogenity_rate 	20
scalar Network700.node190 	qrecord_time 	6888
scalar Network700.node190 	discovery_resolution_rate 	100
scalar Network700.node60 	rate_of_requesters 	1
scalar Network700.node60 	number_of_resources 	38500
scalar Network700.node60 	time_period 	2
scalar Network700.node60 	number_of_messages 	54
scalar Network700.node60 	discovery_latency 	192
scalar Network700.node60 	number_of_desired_resources 	15
scalar Network700.node60 	query_homogenity_rate 	20
scalar Network700.node60 	qrecord_time 	6900
scalar Network700.node60 	discovery_resolution_rate 	100
scalar Network700.node340 	rate_of_requesters 	1
scalar Network700.node340 	number_of_resources 	38500
scalar Network700.node340 	time_period 	2
scalar Network700.node340 	number_of_messages 	62
scalar Network700.node340 	discovery_latency 	222
scalar Network700.node340 	number_of_desired_resources 	15
scalar Network700.node340 	query_homogenity_rate 	20
scalar Network700.node340 	qrecord_time 	6906
scalar Network700.node340 	discovery_resolution_rate 	100
scalar Network700.node500 	rate_of_requesters 	1
scalar Network700.node500 	number_of_resources 	38500
scalar Network700.node500 	time_period 	2
scalar Network700.node500 	number_of_messages 	43
scalar Network700.node500 	discovery_latency 	186
scalar Network700.node500 	number_of_desired_resources 	15
scalar Network700.node500 	query_homogenity_rate 	20
scalar Network700.node500 	qrecord_time 	6912
scalar Network700.node500 	discovery_resolution_rate 	100
scalar Network700.node230 	rate_of_requesters 	1
scalar Network700.node230 	number_of_resources 	38500
scalar Network700.node230 	time_period 	2
scalar Network700.node230 	number_of_messages 	43
scalar Network700.node230 	discovery_latency 	180
scalar Network700.node230 	number_of_desired_resources 	15
scalar Network700.node230 	query_homogenity_rate 	20
scalar Network700.node230 	qrecord_time 	6918
scalar Network700.node230 	discovery_resolution_rate 	100
scalar Network700.node300 	rate_of_requesters 	1
scalar Network700.node300 	number_of_resources 	38500
scalar Network700.node300 	time_period 	2
scalar Network700.node300 	number_of_messages 	48
scalar Network700.node300 	discovery_latency 	252
scalar Network700.node300 	number_of_desired_resources 	15
scalar Network700.node300 	query_homogenity_rate 	20
scalar Network700.node300 	qrecord_time 	6918
scalar Network700.node300 	discovery_resolution_rate 	100
scalar Network700.node140 	rate_of_requesters 	1
scalar Network700.node140 	number_of_resources 	38500
scalar Network700.node140 	time_period 	2
scalar Network700.node140 	number_of_messages 	30
scalar Network700.node140 	discovery_latency 	180
scalar Network700.node140 	number_of_desired_resources 	15
scalar Network700.node140 	query_homogenity_rate 	20
scalar Network700.node140 	qrecord_time 	6954
scalar Network700.node140 	discovery_resolution_rate 	100
scalar Network700.node640 	rate_of_requesters 	1
scalar Network700.node640 	number_of_resources 	38500
scalar Network700.node640 	time_period 	2
scalar Network700.node640 	number_of_messages 	30
scalar Network700.node640 	discovery_latency 	180
scalar Network700.node640 	number_of_desired_resources 	15
scalar Network700.node640 	query_homogenity_rate 	20
scalar Network700.node640 	qrecord_time 	6954
scalar Network700.node640 	discovery_resolution_rate 	100
scalar Network700.node160 	rate_of_requesters 	1
scalar Network700.node160 	number_of_resources 	38500
scalar Network700.node160 	time_period 	2
scalar Network700.node160 	number_of_messages 	37
scalar Network700.node160 	discovery_latency 	240
scalar Network700.node160 	number_of_desired_resources 	15
scalar Network700.node160 	query_homogenity_rate 	20
scalar Network700.node160 	qrecord_time 	6960
scalar Network700.node160 	discovery_resolution_rate 	100
scalar Network700.node520 	rate_of_requesters 	1
scalar Network700.node520 	number_of_resources 	38500
scalar Network700.node520 	time_period 	2
scalar Network700.node520 	number_of_messages 	36
scalar Network700.node520 	discovery_latency 	216
scalar Network700.node520 	number_of_desired_resources 	15
scalar Network700.node520 	query_homogenity_rate 	20
scalar Network700.node520 	qrecord_time 	6966
scalar Network700.node520 	discovery_resolution_rate 	100
scalar Network700.node320 	rate_of_requesters 	1
scalar Network700.node320 	number_of_resources 	38500
scalar Network700.node320 	time_period 	2
scalar Network700.node320 	number_of_messages 	51
scalar Network700.node320 	discovery_latency 	270
scalar Network700.node320 	number_of_desired_resources 	15
scalar Network700.node320 	query_homogenity_rate 	20
scalar Network700.node320 	qrecord_time 	6966
scalar Network700.node320 	discovery_resolution_rate 	100
scalar Network700.node220 	rate_of_requesters 	1
scalar Network700.node220 	number_of_resources 	38500
scalar Network700.node220 	time_period 	2
scalar Network700.node220 	number_of_messages 	39
scalar Network700.node220 	discovery_latency 	276
scalar Network700.node220 	number_of_desired_resources 	15
scalar Network700.node220 	query_homogenity_rate 	20
scalar Network700.node220 	qrecord_time 	6990
scalar Network700.node220 	discovery_resolution_rate 	100
scalar Network700.node630 	rate_of_requesters 	1
scalar Network700.node630 	number_of_resources 	38500
scalar Network700.node630 	time_period 	2
scalar Network700.node630 	number_of_messages 	40
scalar Network700.node630 	discovery_latency 	264
scalar Network700.node630 	number_of_desired_resources 	15
scalar Network700.node630 	query_homogenity_rate 	20
scalar Network700.node630 	qrecord_time 	6990
scalar Network700.node630 	discovery_resolution_rate 	100
scalar Network700.node620 	rate_of_requesters 	1
scalar Network700.node620 	number_of_resources 	38500
scalar Network700.node620 	time_period 	2
scalar Network700.node620 	number_of_messages 	61
scalar Network700.node620 	discovery_latency 	336
scalar Network700.node620 	number_of_desired_resources 	15
scalar Network700.node620 	query_homogenity_rate 	20
scalar Network700.node620 	qrecord_time 	7002
scalar Network700.node620 	discovery_resolution_rate 	100
scalar Network700.node660 	rate_of_requesters 	1
scalar Network700.node660 	number_of_resources 	38500
scalar Network700.node660 	time_period 	2
scalar Network700.node660 	number_of_messages 	47
scalar Network700.node660 	discovery_latency 	252
scalar Network700.node660 	number_of_desired_resources 	15
scalar Network700.node660 	query_homogenity_rate 	20
scalar Network700.node660 	qrecord_time 	7020
scalar Network700.node660 	discovery_resolution_rate 	100
scalar Network700.node540 	rate_of_requesters 	1
scalar Network700.node540 	number_of_resources 	38500
scalar Network700.node540 	time_period 	2
scalar Network700.node540 	number_of_messages 	60
scalar Network700.node540 	discovery_latency 	360
scalar Network700.node540 	number_of_desired_resources 	15
scalar Network700.node540 	query_homogenity_rate 	20
scalar Network700.node540 	qrecord_time 	7026
scalar Network700.node540 	discovery_resolution_rate 	100
scalar Network700.node560 	rate_of_requesters 	1
scalar Network700.node560 	number_of_resources 	38500
scalar Network700.node560 	time_period 	2
scalar Network700.node560 	number_of_messages 	41
scalar Network700.node560 	discovery_latency 	276
scalar Network700.node560 	number_of_desired_resources 	15
scalar Network700.node560 	query_homogenity_rate 	20
scalar Network700.node560 	qrecord_time 	7032
scalar Network700.node560 	discovery_resolution_rate 	100
scalar Network700.node480 	rate_of_requesters 	1
scalar Network700.node480 	number_of_resources 	38500
scalar Network700.node480 	time_period 	2
scalar Network700.node480 	number_of_messages 	42
scalar Network700.node480 	discovery_latency 	252
scalar Network700.node480 	number_of_desired_resources 	15
scalar Network700.node480 	query_homogenity_rate 	20
scalar Network700.node480 	qrecord_time 	7044
scalar Network700.node480 	discovery_resolution_rate 	100
scalar Network700.node100 	rate_of_requesters 	1
scalar Network700.node100 	number_of_resources 	38500
scalar Network700.node100 	time_period 	2
scalar Network700.node100 	number_of_messages 	64
scalar Network700.node100 	discovery_latency 	360
scalar Network700.node100 	number_of_desired_resources 	15
scalar Network700.node100 	query_homogenity_rate 	20
scalar Network700.node100 	qrecord_time 	7044
scalar Network700.node100 	discovery_resolution_rate 	100
scalar Network700.node30 	rate_of_requesters 	1
scalar Network700.node30 	number_of_resources 	38500
scalar Network700.node30 	time_period 	2
scalar Network700.node30 	number_of_messages 	42
scalar Network700.node30 	discovery_latency 	336
scalar Network700.node30 	number_of_desired_resources 	15
scalar Network700.node30 	query_homogenity_rate 	20
scalar Network700.node30 	qrecord_time 	7068
scalar Network700.node30 	discovery_resolution_rate 	100
scalar Network700.node380 	rate_of_requesters 	1
scalar Network700.node380 	number_of_resources 	38500
scalar Network700.node380 	time_period 	2
scalar Network700.node380 	number_of_messages 	60
scalar Network700.node380 	discovery_latency 	348
scalar Network700.node380 	number_of_desired_resources 	15
scalar Network700.node380 	query_homogenity_rate 	20
scalar Network700.node380 	qrecord_time 	7068
scalar Network700.node380 	discovery_resolution_rate 	100
scalar Network700.node400 	rate_of_requesters 	1
scalar Network700.node400 	number_of_resources 	38500
scalar Network700.node400 	time_period 	2
scalar Network700.node400 	number_of_messages 	81
scalar Network700.node400 	discovery_latency 	324
scalar Network700.node400 	number_of_desired_resources 	15
scalar Network700.node400 	query_homogenity_rate 	20
scalar Network700.node400 	qrecord_time 	7074
scalar Network700.node400 	discovery_resolution_rate 	100
scalar Network700.node550 	rate_of_requesters 	1
scalar Network700.node550 	number_of_resources 	38500
scalar Network700.node550 	time_period 	2
scalar Network700.node550 	number_of_messages 	52
scalar Network700.node550 	discovery_latency 	384
scalar Network700.node550 	number_of_desired_resources 	15
scalar Network700.node550 	query_homogenity_rate 	20
scalar Network700.node550 	qrecord_time 	7074
scalar Network700.node550 	discovery_resolution_rate 	100
scalar Network700.node350 	rate_of_requesters 	1
scalar Network700.node350 	number_of_resources 	38500
scalar Network700.node350 	time_period 	2
scalar Network700.node350 	number_of_messages 	54
scalar Network700.node350 	discovery_latency 	378
scalar Network700.node350 	number_of_desired_resources 	15
scalar Network700.node350 	query_homogenity_rate 	20
scalar Network700.node350 	qrecord_time 	7092
scalar Network700.node350 	discovery_resolution_rate 	100
scalar Network700.node680 	rate_of_requesters 	1
scalar Network700.node680 	number_of_resources 	38500
scalar Network700.node680 	time_period 	2
scalar Network700.node680 	number_of_messages 	72
scalar Network700.node680 	discovery_latency 	408
scalar Network700.node680 	number_of_desired_resources 	15
scalar Network700.node680 	query_homogenity_rate 	20
scalar Network700.node680 	qrecord_time 	7092
scalar Network700.node680 	discovery_resolution_rate 	100
scalar Network700.node250 	rate_of_requesters 	1
scalar Network700.node250 	number_of_resources 	38500
scalar Network700.node250 	time_period 	2
scalar Network700.node250 	number_of_messages 	50
scalar Network700.node250 	discovery_latency 	384
scalar Network700.node250 	number_of_desired_resources 	15
scalar Network700.node250 	query_homogenity_rate 	20
scalar Network700.node250 	qrecord_time 	7098
scalar Network700.node250 	discovery_resolution_rate 	100
scalar Network700.node170 	rate_of_requesters 	1
scalar Network700.node170 	number_of_resources 	38500
scalar Network700.node170 	time_period 	2
scalar Network700.node170 	number_of_messages 	41
scalar Network700.node170 	discovery_latency 	348
scalar Network700.node170 	number_of_desired_resources 	15
scalar Network700.node170 	query_homogenity_rate 	20
scalar Network700.node170 	qrecord_time 	7104
scalar Network700.node170 	discovery_resolution_rate 	100
scalar Network700.node330 	rate_of_requesters 	1
scalar Network700.node330 	number_of_resources 	38500
scalar Network700.node330 	time_period 	2
scalar Network700.node330 	number_of_messages 	60
scalar Network700.node330 	discovery_latency 	354
scalar Network700.node330 	number_of_desired_resources 	15
scalar Network700.node330 	query_homogenity_rate 	20
scalar Network700.node330 	qrecord_time 	7104
scalar Network700.node330 	discovery_resolution_rate 	100
scalar Network700.node270 	rate_of_requesters 	1
scalar Network700.node270 	number_of_resources 	38500
scalar Network700.node270 	time_period 	2
scalar Network700.node270 	number_of_messages 	52
scalar Network700.node270 	discovery_latency 	396
scalar Network700.node270 	number_of_desired_resources 	15
scalar Network700.node270 	query_homogenity_rate 	20
scalar Network700.node270 	qrecord_time 	7104
scalar Network700.node270 	discovery_resolution_rate 	100
scalar Network700.node260 	rate_of_requesters 	1
scalar Network700.node260 	number_of_resources 	38500
scalar Network700.node260 	time_period 	2
scalar Network700.node260 	number_of_messages 	63
scalar Network700.node260 	discovery_latency 	408
scalar Network700.node260 	number_of_desired_resources 	15
scalar Network700.node260 	query_homogenity_rate 	20
scalar Network700.node260 	qrecord_time 	7122
scalar Network700.node260 	discovery_resolution_rate 	100
scalar Network700.node470 	rate_of_requesters 	1
scalar Network700.node470 	number_of_resources 	38500
scalar Network700.node470 	time_period 	2
scalar Network700.node470 	number_of_messages 	65
scalar Network700.node470 	discovery_latency 	408
scalar Network700.node470 	number_of_desired_resources 	15
scalar Network700.node470 	query_homogenity_rate 	20
scalar Network700.node470 	qrecord_time 	7122
scalar Network700.node470 	discovery_resolution_rate 	100
scalar Network700.node580 	rate_of_requesters 	1
scalar Network700.node580 	number_of_resources 	38500
scalar Network700.node580 	time_period 	2
scalar Network700.node580 	number_of_messages 	69
scalar Network700.node580 	discovery_latency 	396
scalar Network700.node580 	number_of_desired_resources 	15
scalar Network700.node580 	query_homogenity_rate 	20
scalar Network700.node580 	qrecord_time 	7128
scalar Network700.node580 	discovery_resolution_rate 	100
scalar Network700.node0 	rate_of_requesters 	1
scalar Network700.node0 	number_of_resources 	38500
scalar Network700.node0 	time_period 	2
scalar Network700.node0 	number_of_messages 	48
scalar Network700.node0 	discovery_latency 	396
scalar Network700.node0 	number_of_desired_resources 	15
scalar Network700.node0 	query_homogenity_rate 	20
scalar Network700.node0 	qrecord_time 	7134
scalar Network700.node0 	discovery_resolution_rate 	100
scalar Network700.node200 	rate_of_requesters 	1
scalar Network700.node200 	number_of_resources 	38500
scalar Network700.node200 	time_period 	2
scalar Network700.node200 	number_of_messages 	50
scalar Network700.node200 	discovery_latency 	396
scalar Network700.node200 	number_of_desired_resources 	15
scalar Network700.node200 	query_homogenity_rate 	20
scalar Network700.node200 	qrecord_time 	7134
scalar Network700.node200 	discovery_resolution_rate 	100
scalar Network700.node460 	rate_of_requesters 	1
scalar Network700.node460 	number_of_resources 	38500
scalar Network700.node460 	time_period 	2
scalar Network700.node460 	number_of_messages 	65
scalar Network700.node460 	discovery_latency 	468
scalar Network700.node460 	number_of_desired_resources 	15
scalar Network700.node460 	query_homogenity_rate 	20
scalar Network700.node460 	qrecord_time 	7176
scalar Network700.node460 	discovery_resolution_rate 	100
scalar Network700.node210 	rate_of_requesters 	1
scalar Network700.node210 	number_of_resources 	38500
scalar Network700.node210 	time_period 	2
scalar Network700.node210 	number_of_messages 	92
scalar Network700.node210 	discovery_latency 	468
scalar Network700.node210 	number_of_desired_resources 	15
scalar Network700.node210 	query_homogenity_rate 	20
scalar Network700.node210 	qrecord_time 	7176
scalar Network700.node210 	discovery_resolution_rate 	100
scalar Network700.node610 	rate_of_requesters 	1
scalar Network700.node610 	number_of_resources 	38500
scalar Network700.node610 	time_period 	2
scalar Network700.node610 	number_of_messages 	72
scalar Network700.node610 	discovery_latency 	456
scalar Network700.node610 	number_of_desired_resources 	15
scalar Network700.node610 	query_homogenity_rate 	20
scalar Network700.node610 	qrecord_time 	7182
scalar Network700.node610 	discovery_resolution_rate 	100
scalar Network700.node280 	rate_of_requesters 	1
scalar Network700.node280 	number_of_resources 	38500
scalar Network700.node280 	time_period 	2
scalar Network700.node280 	number_of_messages 	64
scalar Network700.node280 	discovery_latency 	492
scalar Network700.node280 	number_of_desired_resources 	15
scalar Network700.node280 	query_homogenity_rate 	20
scalar Network700.node280 	qrecord_time 	7182
scalar Network700.node280 	discovery_resolution_rate 	100
scalar Network700.node50 	rate_of_requesters 	1
scalar Network700.node50 	number_of_resources 	38500
scalar Network700.node50 	time_period 	2
scalar Network700.node50 	number_of_messages 	48
scalar Network700.node50 	discovery_latency 	396
scalar Network700.node50 	number_of_desired_resources 	15
scalar Network700.node50 	query_homogenity_rate 	20
scalar Network700.node50 	qrecord_time 	7188
scalar Network700.node50 	discovery_resolution_rate 	100
scalar Network700.node290 	rate_of_requesters 	1
scalar Network700.node290 	number_of_resources 	38500
scalar Network700.node290 	time_period 	2
scalar Network700.node290 	number_of_messages 	65
scalar Network700.node290 	discovery_latency 	480
scalar Network700.node290 	number_of_desired_resources 	15
scalar Network700.node290 	query_homogenity_rate 	20
scalar Network700.node290 	qrecord_time 	7188
scalar Network700.node290 	discovery_resolution_rate 	100
scalar Network700.node450 	rate_of_requesters 	1
scalar Network700.node450 	number_of_resources 	38500
scalar Network700.node450 	time_period 	2
scalar Network700.node450 	number_of_messages 	82
scalar Network700.node450 	discovery_latency 	426
scalar Network700.node450 	number_of_desired_resources 	15
scalar Network700.node450 	query_homogenity_rate 	20
scalar Network700.node450 	qrecord_time 	7194
scalar Network700.node450 	discovery_resolution_rate 	100
scalar Network700.node530 	rate_of_requesters 	1
scalar Network700.node530 	number_of_resources 	38500
scalar Network700.node530 	time_period 	2
scalar Network700.node530 	number_of_messages 	94
scalar Network700.node530 	discovery_latency 	480
scalar Network700.node530 	number_of_desired_resources 	15
scalar Network700.node530 	query_homogenity_rate 	20
scalar Network700.node530 	qrecord_time 	7194
scalar Network700.node530 	discovery_resolution_rate 	100
scalar Network700.node240 	rate_of_requesters 	1
scalar Network700.node240 	number_of_resources 	38500
scalar Network700.node240 	time_period 	2
scalar Network700.node240 	number_of_messages 	81
scalar Network700.node240 	discovery_latency 	366
scalar Network700.node240 	number_of_desired_resources 	15
scalar Network700.node240 	query_homogenity_rate 	20
scalar Network700.node240 	qrecord_time 	7200
scalar Network700.node240 	discovery_resolution_rate 	100
scalar Network700.node370 	rate_of_requesters 	1
scalar Network700.node370 	number_of_resources 	38500
scalar Network700.node370 	time_period 	2
scalar Network700.node370 	number_of_messages 	77
scalar Network700.node370 	discovery_latency 	486
scalar Network700.node370 	number_of_desired_resources 	15
scalar Network700.node370 	query_homogenity_rate 	20
scalar Network700.node370 	qrecord_time 	7218
scalar Network700.node370 	discovery_resolution_rate 	100
scalar Network700.node690 	rate_of_requesters 	1
scalar Network700.node690 	number_of_resources 	38500
scalar Network700.node690 	time_period 	2
scalar Network700.node690 	number_of_messages 	60
scalar Network700.node690 	discovery_latency 	468
scalar Network700.node690 	number_of_desired_resources 	15
scalar Network700.node690 	query_homogenity_rate 	20
scalar Network700.node690 	qrecord_time 	7224
scalar Network700.node690 	discovery_resolution_rate 	100
scalar Network700.node90 	rate_of_requesters 	1
scalar Network700.node90 	number_of_resources 	38500
scalar Network700.node90 	time_period 	2
scalar Network700.node90 	number_of_messages 	78
scalar Network700.node90 	discovery_latency 	498
scalar Network700.node90 	number_of_desired_resources 	15
scalar Network700.node90 	query_homogenity_rate 	20
scalar Network700.node90 	qrecord_time 	7230
scalar Network700.node90 	discovery_resolution_rate 	100
scalar Network700.node590 	rate_of_requesters 	1
scalar Network700.node590 	number_of_resources 	38500
scalar Network700.node590 	time_period 	2
scalar Network700.node590 	number_of_messages 	66
scalar Network700.node590 	discovery_latency 	516
scalar Network700.node590 	number_of_desired_resources 	15
scalar Network700.node590 	query_homogenity_rate 	20
scalar Network700.node590 	qrecord_time 	7230
scalar Network700.node590 	discovery_resolution_rate 	100
scalar Network700.node150 	rate_of_requesters 	1
scalar Network700.node150 	number_of_resources 	38500
scalar Network700.node150 	time_period 	2
scalar Network700.node150 	number_of_messages 	59
scalar Network700.node150 	discovery_latency 	456
scalar Network700.node150 	number_of_desired_resources 	15
scalar Network700.node150 	query_homogenity_rate 	20
scalar Network700.node150 	qrecord_time 	7266
scalar Network700.node150 	discovery_resolution_rate 	100
scalar Network700.node40 	rate_of_requesters 	1
scalar Network700.node40 	number_of_resources 	38500
scalar Network700.node40 	time_period 	2
scalar Network700.node40 	number_of_messages 	89
scalar Network700.node40 	discovery_latency 	564
scalar Network700.node40 	number_of_desired_resources 	15
scalar Network700.node40 	query_homogenity_rate 	20
scalar Network700.node40 	qrecord_time 	7284
scalar Network700.node40 	discovery_resolution_rate 	100
scalar Network700.node180 	rate_of_requesters 	1
scalar Network700.node180 	number_of_resources 	38500
scalar Network700.node180 	time_period 	2
scalar Network700.node180 	number_of_messages 	53
scalar Network700.node180 	discovery_latency 	516
scalar Network700.node180 	number_of_desired_resources 	15
scalar Network700.node180 	query_homogenity_rate 	20
scalar Network700.node180 	qrecord_time 	7290
scalar Network700.node180 	discovery_resolution_rate 	100
scalar Network700.node600 	rate_of_requesters 	1
scalar Network700.node600 	number_of_resources 	38500
scalar Network700.node600 	time_period 	2
scalar Network700.node600 	number_of_messages 	69
scalar Network700.node600 	discovery_latency 	582
scalar Network700.node600 	number_of_desired_resources 	15
scalar Network700.node600 	query_homogenity_rate 	20
scalar Network700.node600 	qrecord_time 	7290
scalar Network700.node600 	discovery_resolution_rate 	100
scalar Network700.node670 	rate_of_requesters 	1
scalar Network700.node670 	number_of_resources 	38500
scalar Network700.node670 	time_period 	2
scalar Network700.node670 	number_of_messages 	85
scalar Network700.node670 	discovery_latency 	600
scalar Network700.node670 	number_of_desired_resources 	15
scalar Network700.node670 	query_homogenity_rate 	20
scalar Network700.node670 	qrecord_time 	7296
scalar Network700.node670 	discovery_resolution_rate 	100
scalar Network700.node110 	rate_of_requesters 	1
scalar Network700.node110 	number_of_resources 	38500
scalar Network700.node110 	time_period 	2
scalar Network700.node110 	number_of_messages 	67
scalar Network700.node110 	discovery_latency 	534
scalar Network700.node110 	number_of_desired_resources 	15
scalar Network700.node110 	query_homogenity_rate 	20
scalar Network700.node110 	qrecord_time 	7308
scalar Network700.node110 	discovery_resolution_rate 	100
scalar Network700.node390 	rate_of_requesters 	1
scalar Network700.node390 	number_of_resources 	38500
scalar Network700.node390 	time_period 	2
scalar Network700.node390 	number_of_messages 	73
scalar Network700.node390 	discovery_latency 	522
scalar Network700.node390 	number_of_desired_resources 	15
scalar Network700.node390 	query_homogenity_rate 	20
scalar Network700.node390 	qrecord_time 	7314
scalar Network700.node390 	discovery_resolution_rate 	100
scalar Network700.node310 	rate_of_requesters 	1
scalar Network700.node310 	number_of_resources 	38500
scalar Network700.node310 	time_period 	2
scalar Network700.node310 	number_of_messages 	59
scalar Network700.node310 	discovery_latency 	606
scalar Network700.node310 	number_of_desired_resources 	15
scalar Network700.node310 	query_homogenity_rate 	20
scalar Network700.node310 	qrecord_time 	7332
scalar Network700.node310 	discovery_resolution_rate 	100
scalar Network700.node510 	rate_of_requesters 	1
scalar Network700.node510 	number_of_resources 	38500
scalar Network700.node510 	time_period 	2
scalar Network700.node510 	number_of_messages 	91
scalar Network700.node510 	discovery_latency 	600
scalar Network700.node510 	number_of_desired_resources 	15
scalar Network700.node510 	query_homogenity_rate 	20
scalar Network700.node510 	qrecord_time 	7368
scalar Network700.node510 	discovery_resolution_rate 	100
scalar Network700.node440 	rate_of_requesters 	1
scalar Network700.node440 	number_of_resources 	38500
scalar Network700.node440 	time_period 	2
scalar Network700.node440 	number_of_messages 	67
scalar Network700.node440 	discovery_latency 	672
scalar Network700.node440 	number_of_desired_resources 	15
scalar Network700.node440 	query_homogenity_rate 	20
scalar Network700.node440 	qrecord_time 	7380
scalar Network700.node440 	discovery_resolution_rate 	100
scalar Network700.node650 	rate_of_requesters 	1
scalar Network700.node650 	number_of_resources 	38500
scalar Network700.node650 	time_period 	2
scalar Network700.node650 	number_of_messages 	98
scalar Network700.node650 	discovery_latency 	672
scalar Network700.node650 	number_of_desired_resources 	15
scalar Network700.node650 	query_homogenity_rate 	20
scalar Network700.node650 	qrecord_time 	7404
scalar Network700.node650 	discovery_resolution_rate 	100
scalar Network700.node410 	rate_of_requesters 	1
scalar Network700.node410 	number_of_resources 	38500
scalar Network700.node410 	time_period 	3
scalar Network700.node410 	number_of_messages 	33
scalar Network700.node410 	discovery_latency 	126
scalar Network700.node410 	number_of_desired_resources 	15
scalar Network700.node410 	query_homogenity_rate 	20
scalar Network700.node410 	qrecord_time 	8792
scalar Network700.node410 	discovery_resolution_rate 	100
scalar Network700.node430 	rate_of_requesters 	1
scalar Network700.node430 	number_of_resources 	38500
scalar Network700.node430 	time_period 	3
scalar Network700.node430 	number_of_messages 	17
scalar Network700.node430 	discovery_latency 	66.000000000001
scalar Network700.node430 	number_of_desired_resources 	15
scalar Network700.node430 	query_homogenity_rate 	20
scalar Network700.node430 	qrecord_time 	8822
scalar Network700.node430 	discovery_resolution_rate 	100
scalar Network700.node420 	rate_of_requesters 	1
scalar Network700.node420 	number_of_resources 	38500
scalar Network700.node420 	time_period 	3
scalar Network700.node420 	number_of_messages 	49
scalar Network700.node420 	discovery_latency 	180
scalar Network700.node420 	number_of_desired_resources 	15
scalar Network700.node420 	query_homogenity_rate 	20
scalar Network700.node420 	qrecord_time 	8828
scalar Network700.node420 	discovery_resolution_rate 	100
scalar Network700.node490 	rate_of_requesters 	1
scalar Network700.node490 	number_of_resources 	38500
scalar Network700.node490 	time_period 	3
scalar Network700.node490 	number_of_messages 	41
scalar Network700.node490 	discovery_latency 	156
scalar Network700.node490 	number_of_desired_resources 	15
scalar Network700.node490 	query_homogenity_rate 	20
scalar Network700.node490 	qrecord_time 	8840
scalar Network700.node490 	discovery_resolution_rate 	100
scalar Network700.node250 	rate_of_requesters 	1
scalar Network700.node250 	number_of_resources 	38500
scalar Network700.node250 	time_period 	3
scalar Network700.node250 	number_of_messages 	31
scalar Network700.node250 	discovery_latency 	132
scalar Network700.node250 	number_of_desired_resources 	15
scalar Network700.node250 	query_homogenity_rate 	20
scalar Network700.node250 	qrecord_time 	8846
scalar Network700.node250 	discovery_resolution_rate 	100
scalar Network700.node80 	rate_of_requesters 	1
scalar Network700.node80 	number_of_resources 	38500
scalar Network700.node80 	time_period 	3
scalar Network700.node80 	number_of_messages 	30
scalar Network700.node80 	discovery_latency 	156
scalar Network700.node80 	number_of_desired_resources 	15
scalar Network700.node80 	query_homogenity_rate 	20
scalar Network700.node80 	qrecord_time 	8846
scalar Network700.node80 	discovery_resolution_rate 	100
scalar Network700.node130 	rate_of_requesters 	1
scalar Network700.node130 	number_of_resources 	38500
scalar Network700.node130 	time_period 	3
scalar Network700.node130 	number_of_messages 	28
scalar Network700.node130 	discovery_latency 	156
scalar Network700.node130 	number_of_desired_resources 	15
scalar Network700.node130 	query_homogenity_rate 	20
scalar Network700.node130 	qrecord_time 	8852
scalar Network700.node130 	discovery_resolution_rate 	100
scalar Network700.node570 	rate_of_requesters 	1
scalar Network700.node570 	number_of_resources 	38500
scalar Network700.node570 	time_period 	3
scalar Network700.node570 	number_of_messages 	42
scalar Network700.node570 	discovery_latency 	168
scalar Network700.node570 	number_of_desired_resources 	15
scalar Network700.node570 	query_homogenity_rate 	20
scalar Network700.node570 	qrecord_time 	8852
scalar Network700.node570 	discovery_resolution_rate 	100
scalar Network700.node360 	rate_of_requesters 	1
scalar Network700.node360 	number_of_resources 	38500
scalar Network700.node360 	time_period 	3
scalar Network700.node360 	number_of_messages 	28
scalar Network700.node360 	discovery_latency 	120
scalar Network700.node360 	number_of_desired_resources 	15
scalar Network700.node360 	query_homogenity_rate 	20
scalar Network700.node360 	qrecord_time 	8870
scalar Network700.node360 	discovery_resolution_rate 	100
scalar Network700.node500 	rate_of_requesters 	1
scalar Network700.node500 	number_of_resources 	38500
scalar Network700.node500 	time_period 	3
scalar Network700.node500 	number_of_messages 	43
scalar Network700.node500 	discovery_latency 	186
scalar Network700.node500 	number_of_desired_resources 	15
scalar Network700.node500 	query_homogenity_rate 	20
scalar Network700.node500 	qrecord_time 	8912
scalar Network700.node500 	discovery_resolution_rate 	100
scalar Network700.node230 	rate_of_requesters 	1
scalar Network700.node230 	number_of_resources 	38500
scalar Network700.node230 	time_period 	3
scalar Network700.node230 	number_of_messages 	43
scalar Network700.node230 	discovery_latency 	180
scalar Network700.node230 	number_of_desired_resources 	15
scalar Network700.node230 	query_homogenity_rate 	20
scalar Network700.node230 	qrecord_time 	8918
scalar Network700.node230 	discovery_resolution_rate 	100
scalar Network700.node520 	rate_of_requesters 	1
scalar Network700.node520 	number_of_resources 	38500
scalar Network700.node520 	time_period 	3
scalar Network700.node520 	number_of_messages 	37
scalar Network700.node520 	discovery_latency 	180
scalar Network700.node520 	number_of_desired_resources 	15
scalar Network700.node520 	query_homogenity_rate 	20
scalar Network700.node520 	qrecord_time 	8930
scalar Network700.node520 	discovery_resolution_rate 	100
scalar Network700.node10 	rate_of_requesters 	1
scalar Network700.node10 	number_of_resources 	38500
scalar Network700.node10 	time_period 	3
scalar Network700.node10 	number_of_messages 	44
scalar Network700.node10 	discovery_latency 	240
scalar Network700.node10 	number_of_desired_resources 	15
scalar Network700.node10 	query_homogenity_rate 	20
scalar Network700.node10 	qrecord_time 	8930
scalar Network700.node10 	discovery_resolution_rate 	100
scalar Network700.node70 	rate_of_requesters 	1
scalar Network700.node70 	number_of_resources 	38500
scalar Network700.node70 	time_period 	3
scalar Network700.node70 	number_of_messages 	44
scalar Network700.node70 	discovery_latency 	240
scalar Network700.node70 	number_of_desired_resources 	15
scalar Network700.node70 	query_homogenity_rate 	20
scalar Network700.node70 	qrecord_time 	8936
scalar Network700.node70 	discovery_resolution_rate 	100
scalar Network700.node20 	rate_of_requesters 	1
scalar Network700.node20 	number_of_resources 	38500
scalar Network700.node20 	time_period 	3
scalar Network700.node20 	number_of_messages 	63
scalar Network700.node20 	discovery_latency 	270
scalar Network700.node20 	number_of_desired_resources 	15
scalar Network700.node20 	query_homogenity_rate 	20
scalar Network700.node20 	qrecord_time 	8936
scalar Network700.node20 	discovery_resolution_rate 	100
scalar Network700.node190 	rate_of_requesters 	1
scalar Network700.node190 	number_of_resources 	38500
scalar Network700.node190 	time_period 	3
scalar Network700.node190 	number_of_messages 	63
scalar Network700.node190 	discovery_latency 	270
scalar Network700.node190 	number_of_desired_resources 	15
scalar Network700.node190 	query_homogenity_rate 	20
scalar Network700.node190 	qrecord_time 	8936
scalar Network700.node190 	discovery_resolution_rate 	100
scalar Network700.node140 	rate_of_requesters 	1
scalar Network700.node140 	number_of_resources 	38500
scalar Network700.node140 	time_period 	3
scalar Network700.node140 	number_of_messages 	32
scalar Network700.node140 	discovery_latency 	180
scalar Network700.node140 	number_of_desired_resources 	15
scalar Network700.node140 	query_homogenity_rate 	20
scalar Network700.node140 	qrecord_time 	8954
scalar Network700.node140 	discovery_resolution_rate 	100
scalar Network700.node640 	rate_of_requesters 	1
scalar Network700.node640 	number_of_resources 	38500
scalar Network700.node640 	time_period 	3
scalar Network700.node640 	number_of_messages 	34
scalar Network700.node640 	discovery_latency 	180
scalar Network700.node640 	number_of_desired_resources 	15
scalar Network700.node640 	query_homogenity_rate 	20
scalar Network700.node640 	qrecord_time 	8954
scalar Network700.node640 	discovery_resolution_rate 	100
scalar Network700.node550 	rate_of_requesters 	1
scalar Network700.node550 	number_of_resources 	38500
scalar Network700.node550 	time_period 	3
scalar Network700.node550 	number_of_messages 	40
scalar Network700.node550 	discovery_latency 	264
scalar Network700.node550 	number_of_desired_resources 	15
scalar Network700.node550 	query_homogenity_rate 	20
scalar Network700.node550 	qrecord_time 	8954
scalar Network700.node550 	discovery_resolution_rate 	100
scalar Network700.node160 	rate_of_requesters 	1
scalar Network700.node160 	number_of_resources 	38500
scalar Network700.node160 	time_period 	3
scalar Network700.node160 	number_of_messages 	37
scalar Network700.node160 	discovery_latency 	240
scalar Network700.node160 	number_of_desired_resources 	15
scalar Network700.node160 	query_homogenity_rate 	20
scalar Network700.node160 	qrecord_time 	8960
scalar Network700.node160 	discovery_resolution_rate 	100
scalar Network700.node320 	rate_of_requesters 	1
scalar Network700.node320 	number_of_resources 	38500
scalar Network700.node320 	time_period 	3
scalar Network700.node320 	number_of_messages 	51
scalar Network700.node320 	discovery_latency 	270
scalar Network700.node320 	number_of_desired_resources 	15
scalar Network700.node320 	query_homogenity_rate 	20
scalar Network700.node320 	qrecord_time 	8966
scalar Network700.node320 	discovery_resolution_rate 	100
scalar Network700.node690 	rate_of_requesters 	1
scalar Network700.node690 	number_of_resources 	38500
scalar Network700.node690 	time_period 	3
scalar Network700.node690 	number_of_messages 	48
scalar Network700.node690 	discovery_latency 	222
scalar Network700.node690 	number_of_desired_resources 	15
scalar Network700.node690 	query_homogenity_rate 	20
scalar Network700.node690 	qrecord_time 	8978
scalar Network700.node690 	discovery_resolution_rate 	100
scalar Network700.node340 	rate_of_requesters 	1
scalar Network700.node340 	number_of_resources 	38500
scalar Network700.node340 	time_period 	3
scalar Network700.node340 	number_of_messages 	75
scalar Network700.node340 	discovery_latency 	300
scalar Network700.node340 	number_of_desired_resources 	15
scalar Network700.node340 	query_homogenity_rate 	20
scalar Network700.node340 	qrecord_time 	8984
scalar Network700.node340 	discovery_resolution_rate 	100
scalar Network700.node560 	rate_of_requesters 	1
scalar Network700.node560 	number_of_resources 	38500
scalar Network700.node560 	time_period 	3
scalar Network700.node560 	number_of_messages 	48
scalar Network700.node560 	discovery_latency 	252
scalar Network700.node560 	number_of_desired_resources 	15
scalar Network700.node560 	query_homogenity_rate 	20
scalar Network700.node560 	qrecord_time 	9008
scalar Network700.node560 	discovery_resolution_rate 	100
scalar Network700.node670 	rate_of_requesters 	1
scalar Network700.node670 	number_of_resources 	38500
scalar Network700.node670 	time_period 	3
scalar Network700.node670 	number_of_messages 	68
scalar Network700.node670 	discovery_latency 	324
scalar Network700.node670 	number_of_desired_resources 	15
scalar Network700.node670 	query_homogenity_rate 	20
scalar Network700.node670 	qrecord_time 	9020
scalar Network700.node670 	discovery_resolution_rate 	100
scalar Network700.node480 	rate_of_requesters 	1
scalar Network700.node480 	number_of_resources 	38500
scalar Network700.node480 	time_period 	3
scalar Network700.node480 	number_of_messages 	56
scalar Network700.node480 	discovery_latency 	246
scalar Network700.node480 	number_of_desired_resources 	15
scalar Network700.node480 	query_homogenity_rate 	20
scalar Network700.node480 	qrecord_time 	9038
scalar Network700.node480 	discovery_resolution_rate 	100
scalar Network700.node220 	rate_of_requesters 	1
scalar Network700.node220 	number_of_resources 	38500
scalar Network700.node220 	time_period 	3
scalar Network700.node220 	number_of_messages 	42
scalar Network700.node220 	discovery_latency 	330
scalar Network700.node220 	number_of_desired_resources 	15
scalar Network700.node220 	query_homogenity_rate 	20
scalar Network700.node220 	qrecord_time 	9044
scalar Network700.node220 	discovery_resolution_rate 	100
scalar Network700.node260 	rate_of_requesters 	1
scalar Network700.node260 	number_of_resources 	38500
scalar Network700.node260 	time_period 	3
scalar Network700.node260 	number_of_messages 	53
scalar Network700.node260 	discovery_latency 	330
scalar Network700.node260 	number_of_desired_resources 	15
scalar Network700.node260 	query_homogenity_rate 	20
scalar Network700.node260 	qrecord_time 	9044
scalar Network700.node260 	discovery_resolution_rate 	100
scalar Network700.node470 	rate_of_requesters 	1
scalar Network700.node470 	number_of_resources 	38500
scalar Network700.node470 	time_period 	3
scalar Network700.node470 	number_of_messages 	54
scalar Network700.node470 	discovery_latency 	330
scalar Network700.node470 	number_of_desired_resources 	15
scalar Network700.node470 	query_homogenity_rate 	20
scalar Network700.node470 	qrecord_time 	9044
scalar Network700.node470 	discovery_resolution_rate 	100
scalar Network700.node650 	rate_of_requesters 	1
scalar Network700.node650 	number_of_resources 	38500
scalar Network700.node650 	time_period 	3
scalar Network700.node650 	number_of_messages 	78
scalar Network700.node650 	discovery_latency 	318
scalar Network700.node650 	number_of_desired_resources 	15
scalar Network700.node650 	query_homogenity_rate 	20
scalar Network700.node650 	qrecord_time 	9050
scalar Network700.node650 	discovery_resolution_rate 	100
scalar Network700.node300 	rate_of_requesters 	1
scalar Network700.node300 	number_of_resources 	38500
scalar Network700.node300 	time_period 	3
scalar Network700.node300 	number_of_messages 	55
scalar Network700.node300 	discovery_latency 	384
scalar Network700.node300 	number_of_desired_resources 	15
scalar Network700.node300 	query_homogenity_rate 	20
scalar Network700.node300 	qrecord_time 	9050
scalar Network700.node300 	discovery_resolution_rate 	100
scalar Network700.node30 	rate_of_requesters 	1
scalar Network700.node30 	number_of_resources 	38500
scalar Network700.node30 	time_period 	3
scalar Network700.node30 	number_of_messages 	42
scalar Network700.node30 	discovery_latency 	336
scalar Network700.node30 	number_of_desired_resources 	15
scalar Network700.node30 	query_homogenity_rate 	20
scalar Network700.node30 	qrecord_time 	9068
scalar Network700.node30 	discovery_resolution_rate 	100
scalar Network700.node400 	rate_of_requesters 	1
scalar Network700.node400 	number_of_resources 	38500
scalar Network700.node400 	time_period 	3
scalar Network700.node400 	number_of_messages 	76
scalar Network700.node400 	discovery_latency 	336
scalar Network700.node400 	number_of_desired_resources 	15
scalar Network700.node400 	query_homogenity_rate 	20
scalar Network700.node400 	qrecord_time 	9086
[...]
scalar Network700.node350 	query_homogenity_rate 	20
scalar Network700.node350 	qrecord_time 	11092
scalar Network700.node350 	discovery_resolution_rate 	100
scalar Network700.node210 	rate_of_requesters 	1
scalar Network700.node210 	number_of_resources 	38500
scalar Network700.node210 	time_period 	4
scalar Network700.node210 	number_of_messages 	79
scalar Network700.node210 	discovery_latency 	390
scalar Network700.node210 	number_of_desired_resources 	15
scalar Network700.node210 	query_homogenity_rate 	20
scalar Network700.node210 	qrecord_time 	11098
scalar Network700.node210 	discovery_resolution_rate 	100
scalar Network700.node390 	rate_of_requesters 	1
scalar Network700.node390 	number_of_resources 	38500
scalar Network700.node390 	time_period 	4
scalar Network700.node390 	number_of_messages 	55
scalar Network700.node390 	discovery_latency 	318
scalar Network700.node390 	number_of_desired_resources 	15
scalar Network700.node390 	query_homogenity_rate 	20
scalar Network700.node390 	qrecord_time 	11110
scalar Network700.node390 	discovery_resolution_rate 	100
scalar Network700.node160 	rate_of_requesters 	1
scalar Network700.node160 	number_of_resources 	38500
scalar Network700.node160 	time_period 	4
scalar Network700.node160 	number_of_messages 	46
scalar Network700.node160 	discovery_latency 	396
scalar Network700.node160 	number_of_desired_resources 	15
scalar Network700.node160 	query_homogenity_rate 	20
scalar Network700.node160 	qrecord_time 	11116
scalar Network700.node160 	discovery_resolution_rate 	100
scalar Network700.node380 	rate_of_requesters 	1
scalar Network700.node380 	number_of_resources 	38500
scalar Network700.node380 	time_period 	4
scalar Network700.node380 	number_of_messages 	67
scalar Network700.node380 	discovery_latency 	396
scalar Network700.node380 	number_of_desired_resources 	15
scalar Network700.node380 	query_homogenity_rate 	20
scalar Network700.node380 	qrecord_time 	11116
scalar Network700.node380 	discovery_resolution_rate 	100
scalar Network700.node510 	rate_of_requesters 	1
scalar Network700.node510 	number_of_resources 	38500
scalar Network700.node510 	time_period 	4
scalar Network700.node510 	number_of_messages 	69
scalar Network700.node510 	discovery_latency 	354
scalar Network700.node510 	number_of_desired_resources 	15
scalar Network700.node510 	query_homogenity_rate 	20
scalar Network700.node510 	qrecord_time 	11122
scalar Network700.node510 	discovery_resolution_rate 	100
scalar Network700.node460 	rate_of_requesters 	1
scalar Network700.node460 	number_of_resources 	38500
scalar Network700.node460 	time_period 	4
scalar Network700.node460 	number_of_messages 	69
scalar Network700.node460 	discovery_latency 	426
scalar Network700.node460 	number_of_desired_resources 	15
scalar Network700.node460 	query_homogenity_rate 	20
scalar Network700.node460 	qrecord_time 	11134
scalar Network700.node460 	discovery_resolution_rate 	100
scalar Network700.node560 	rate_of_requesters 	1
scalar Network700.node560 	number_of_resources 	38500
scalar Network700.node560 	time_period 	4
scalar Network700.node560 	number_of_messages 	61
scalar Network700.node560 	discovery_latency 	390
scalar Network700.node560 	number_of_desired_resources 	15
scalar Network700.node560 	query_homogenity_rate 	20
scalar Network700.node560 	qrecord_time 	11146
scalar Network700.node560 	discovery_resolution_rate 	100
scalar Network700.node480 	rate_of_requesters 	1
scalar Network700.node480 	number_of_resources 	38500
scalar Network700.node480 	time_period 	4
scalar Network700.node480 	number_of_messages 	67
scalar Network700.node480 	discovery_latency 	360
scalar Network700.node480 	number_of_desired_resources 	15
scalar Network700.node480 	query_homogenity_rate 	20
scalar Network700.node480 	qrecord_time 	11152
scalar Network700.node480 	discovery_resolution_rate 	100
scalar Network700.node230 	rate_of_requesters 	1
scalar Network700.node230 	number_of_resources 	38500
scalar Network700.node230 	time_period 	4
scalar Network700.node230 	number_of_messages 	60
scalar Network700.node230 	discovery_latency 	414
scalar Network700.node230 	number_of_desired_resources 	15
scalar Network700.node230 	query_homogenity_rate 	20
scalar Network700.node230 	qrecord_time 	11152
scalar Network700.node230 	discovery_resolution_rate 	100
scalar Network700.node190 	rate_of_requesters 	1
scalar Network700.node190 	number_of_resources 	38500
scalar Network700.node190 	time_period 	4
scalar Network700.node190 	number_of_messages 	82
scalar Network700.node190 	discovery_latency 	486
scalar Network700.node190 	number_of_desired_resources 	15
scalar Network700.node190 	query_homogenity_rate 	20
scalar Network700.node190 	qrecord_time 	11152
scalar Network700.node190 	discovery_resolution_rate 	100
scalar Network700.node650 	rate_of_requesters 	1
scalar Network700.node650 	number_of_resources 	38500
scalar Network700.node650 	time_period 	4
scalar Network700.node650 	number_of_messages 	91
scalar Network700.node650 	discovery_latency 	426
scalar Network700.node650 	number_of_desired_resources 	15
scalar Network700.node650 	query_homogenity_rate 	20
scalar Network700.node650 	qrecord_time 	11158
scalar Network700.node650 	discovery_resolution_rate 	100
scalar Network700.node690 	rate_of_requesters 	1
scalar Network700.node690 	number_of_resources 	38500
scalar Network700.node690 	time_period 	4
scalar Network700.node690 	number_of_messages 	65
scalar Network700.node690 	discovery_latency 	414
scalar Network700.node690 	number_of_desired_resources 	15
scalar Network700.node690 	query_homogenity_rate 	20
scalar Network700.node690 	qrecord_time 	11170
scalar Network700.node690 	discovery_resolution_rate 	100
scalar Network700.node50 	rate_of_requesters 	1
scalar Network700.node50 	number_of_resources 	38500
scalar Network700.node50 	time_period 	4
scalar Network700.node50 	number_of_messages 	65
scalar Network700.node50 	discovery_latency 	384
scalar Network700.node50 	number_of_desired_resources 	15
scalar Network700.node50 	query_homogenity_rate 	20
scalar Network700.node50 	qrecord_time 	11176
scalar Network700.node50 	discovery_resolution_rate 	100
scalar Network700.node280 	rate_of_requesters 	1
scalar Network700.node280 	number_of_resources 	38500
scalar Network700.node280 	time_period 	4
scalar Network700.node280 	number_of_messages 	64
scalar Network700.node280 	discovery_latency 	492
scalar Network700.node280 	number_of_desired_resources 	15
scalar Network700.node280 	query_homogenity_rate 	20
scalar Network700.node280 	qrecord_time 	11182
scalar Network700.node280 	discovery_resolution_rate 	100
scalar Network700.node170 	rate_of_requesters 	1
scalar Network700.node170 	number_of_resources 	38500
scalar Network700.node170 	time_period 	4
scalar Network700.node170 	number_of_messages 	46
scalar Network700.node170 	discovery_latency 	438
scalar Network700.node170 	number_of_desired_resources 	15
scalar Network700.node170 	query_homogenity_rate 	20
scalar Network700.node170 	qrecord_time 	11194
scalar Network700.node170 	discovery_resolution_rate 	100
scalar Network700.node240 	rate_of_requesters 	1
scalar Network700.node240 	number_of_resources 	38500
scalar Network700.node240 	time_period 	4
scalar Network700.node240 	number_of_messages 	75
scalar Network700.node240 	discovery_latency 	366
scalar Network700.node240 	number_of_desired_resources 	15
scalar Network700.node240 	query_homogenity_rate 	20
scalar Network700.node240 	qrecord_time 	11200
scalar Network700.node240 	discovery_resolution_rate 	100
scalar Network700.node290 	rate_of_requesters 	1
scalar Network700.node290 	number_of_resources 	38500
scalar Network700.node290 	time_period 	4
scalar Network700.node290 	number_of_messages 	64
scalar Network700.node290 	discovery_latency 	498
scalar Network700.node290 	number_of_desired_resources 	15
scalar Network700.node290 	query_homogenity_rate 	20
scalar Network700.node290 	qrecord_time 	11206
scalar Network700.node290 	discovery_resolution_rate 	100
scalar Network700.node180 	rate_of_requesters 	1
scalar Network700.node180 	number_of_resources 	38500
scalar Network700.node180 	time_period 	4
scalar Network700.node180 	number_of_messages 	46
scalar Network700.node180 	discovery_latency 	438
scalar Network700.node180 	number_of_desired_resources 	15
scalar Network700.node180 	query_homogenity_rate 	20
scalar Network700.node180 	qrecord_time 	11212
scalar Network700.node180 	discovery_resolution_rate 	100
scalar Network700.node370 	rate_of_requesters 	1
scalar Network700.node370 	number_of_resources 	38500
scalar Network700.node370 	time_period 	4
scalar Network700.node370 	number_of_messages 	77
scalar Network700.node370 	discovery_latency 	486
scalar Network700.node370 	number_of_desired_resources 	15
scalar Network700.node370 	query_homogenity_rate 	20
scalar Network700.node370 	qrecord_time 	11218
scalar Network700.node370 	discovery_resolution_rate 	100
scalar Network700.node90 	rate_of_requesters 	1
scalar Network700.node90 	number_of_resources 	38500
scalar Network700.node90 	time_period 	4
scalar Network700.node90 	number_of_messages 	78
scalar Network700.node90 	discovery_latency 	486
scalar Network700.node90 	number_of_desired_resources 	15
scalar Network700.node90 	query_homogenity_rate 	20
scalar Network700.node90 	qrecord_time 	11218
scalar Network700.node90 	discovery_resolution_rate 	100
scalar Network700.node150 	rate_of_requesters 	1
scalar Network700.node150 	number_of_resources 	38500
scalar Network700.node150 	time_period 	4
scalar Network700.node150 	number_of_messages 	69
scalar Network700.node150 	discovery_latency 	414
scalar Network700.node150 	number_of_desired_resources 	15
scalar Network700.node150 	query_homogenity_rate 	20
scalar Network700.node150 	qrecord_time 	11224
scalar Network700.node150 	discovery_resolution_rate 	100
scalar Network700.node60 	rate_of_requesters 	1
scalar Network700.node60 	number_of_resources 	38500
scalar Network700.node60 	time_period 	4
scalar Network700.node60 	number_of_messages 	81
scalar Network700.node60 	discovery_latency 	522
scalar Network700.node60 	number_of_desired_resources 	15
scalar Network700.node60 	query_homogenity_rate 	20
scalar Network700.node60 	qrecord_time 	11230
scalar Network700.node60 	discovery_resolution_rate 	100
scalar Network700.node330 	rate_of_requesters 	1
scalar Network700.node330 	number_of_resources 	38500
scalar Network700.node330 	time_period 	4
scalar Network700.node330 	number_of_messages 	66
scalar Network700.node330 	discovery_latency 	492
scalar Network700.node330 	number_of_desired_resources 	15
scalar Network700.node330 	query_homogenity_rate 	20
scalar Network700.node330 	qrecord_time 	11242
scalar Network700.node330 	discovery_resolution_rate 	100
scalar Network700.node580 	rate_of_requesters 	1
scalar Network700.node580 	number_of_resources 	38500
scalar Network700.node580 	time_period 	4
scalar Network700.node580 	number_of_messages 	83
scalar Network700.node580 	discovery_latency 	516
scalar Network700.node580 	number_of_desired_resources 	15
scalar Network700.node580 	query_homogenity_rate 	20
scalar Network700.node580 	qrecord_time 	11248
scalar Network700.node580 	discovery_resolution_rate 	100
scalar Network700.node610 	rate_of_requesters 	1
scalar Network700.node610 	number_of_resources 	38500
scalar Network700.node610 	time_period 	4
scalar Network700.node610 	number_of_messages 	82
scalar Network700.node610 	discovery_latency 	528
scalar Network700.node610 	number_of_desired_resources 	15
scalar Network700.node610 	query_homogenity_rate 	20
scalar Network700.node610 	qrecord_time 	11254
scalar Network700.node610 	discovery_resolution_rate 	100
scalar Network700.node440 	rate_of_requesters 	1
scalar Network700.node440 	number_of_resources 	38500
scalar Network700.node440 	time_period 	4
scalar Network700.node440 	number_of_messages 	64
scalar Network700.node440 	discovery_latency 	576
scalar Network700.node440 	number_of_desired_resources 	15
scalar Network700.node440 	query_homogenity_rate 	20
scalar Network700.node440 	qrecord_time 	11284
scalar Network700.node440 	discovery_resolution_rate 	100
scalar Network700.node310 	rate_of_requesters 	1
scalar Network700.node310 	number_of_resources 	38500
scalar Network700.node310 	time_period 	4
scalar Network700.node310 	number_of_messages 	64
scalar Network700.node310 	discovery_latency 	576
scalar Network700.node310 	number_of_desired_resources 	15
scalar Network700.node310 	query_homogenity_rate 	20
scalar Network700.node310 	qrecord_time 	11302
scalar Network700.node310 	discovery_resolution_rate 	100
scalar Network700.node620 	rate_of_requesters 	1
scalar Network700.node620 	number_of_resources 	38500
scalar Network700.node620 	time_period 	4
scalar Network700.node620 	number_of_messages 	91
scalar Network700.node620 	discovery_latency 	636
scalar Network700.node620 	number_of_desired_resources 	15
scalar Network700.node620 	query_homogenity_rate 	20
scalar Network700.node620 	qrecord_time 	11302
scalar Network700.node620 	discovery_resolution_rate 	100
scalar Network700.node300 	rate_of_requesters 	1
scalar Network700.node300 	number_of_resources 	38500
scalar Network700.node300 	time_period 	4
scalar Network700.node300 	number_of_messages 	73
scalar Network700.node300 	discovery_latency 	636
scalar Network700.node300 	number_of_desired_resources 	15
scalar Network700.node300 	query_homogenity_rate 	20
scalar Network700.node300 	qrecord_time 	11302
scalar Network700.node300 	discovery_resolution_rate 	100
scalar Network700.node340 	rate_of_requesters 	1
scalar Network700.node340 	number_of_resources 	38500
scalar Network700.node340 	time_period 	4
scalar Network700.node340 	number_of_messages 	91
scalar Network700.node340 	discovery_latency 	636
scalar Network700.node340 	number_of_desired_resources 	15
scalar Network700.node340 	query_homogenity_rate 	20
scalar Network700.node340 	qrecord_time 	11320
scalar Network700.node340 	discovery_resolution_rate 	100
scalar Network700.node110 	rate_of_requesters 	1
scalar Network700.node110 	number_of_resources 	38500
scalar Network700.node110 	time_period 	4
scalar Network700.node110 	number_of_messages 	76
scalar Network700.node110 	discovery_latency 	552
scalar Network700.node110 	number_of_desired_resources 	15
scalar Network700.node110 	query_homogenity_rate 	20
scalar Network700.node110 	qrecord_time 	11326
scalar Network700.node110 	discovery_resolution_rate 	100
scalar Network700.node0 	rate_of_requesters 	1
scalar Network700.node0 	number_of_resources 	38500
scalar Network700.node0 	time_period 	4
scalar Network700.node0 	number_of_messages 	74
scalar Network700.node0 	discovery_latency 	624
scalar Network700.node0 	number_of_desired_resources 	15
scalar Network700.node0 	query_homogenity_rate 	20
scalar Network700.node0 	qrecord_time 	11362
scalar Network700.node0 	discovery_resolution_rate 	100
scalar Network700.node200 	rate_of_requesters 	1
scalar Network700.node200 	number_of_resources 	38500
scalar Network700.node200 	time_period 	4
scalar Network700.node200 	number_of_messages 	81
scalar Network700.node200 	discovery_latency 	624
scalar Network700.node200 	number_of_desired_resources 	15
scalar Network700.node200 	query_homogenity_rate 	20
scalar Network700.node200 	qrecord_time 	11362
scalar Network700.node200 	discovery_resolution_rate 	100
scalar Network700.node680 	rate_of_requesters 	1
scalar Network700.node680 	number_of_resources 	38500
scalar Network700.node680 	time_period 	4
scalar Network700.node680 	number_of_messages 	116
scalar Network700.node680 	discovery_latency 	708
scalar Network700.node680 	number_of_desired_resources 	15
scalar Network700.node680 	query_homogenity_rate 	20
scalar Network700.node680 	qrecord_time 	11392
scalar Network700.node680 	discovery_resolution_rate 	100
scalar Network700.node540 	rate_of_requesters 	1
scalar Network700.node540 	number_of_resources 	38500
scalar Network700.node540 	time_period 	4
scalar Network700.node540 	number_of_messages 	86
scalar Network700.node540 	discovery_latency 	732
scalar Network700.node540 	number_of_desired_resources 	15
scalar Network700.node540 	query_homogenity_rate 	20
scalar Network700.node540 	qrecord_time 	11398
scalar Network700.node540 	discovery_resolution_rate 	100
scalar Network700.node270 	rate_of_requesters 	1
scalar Network700.node270 	number_of_resources 	38500
scalar Network700.node270 	time_period 	4
scalar Network700.node270 	number_of_messages 	72
scalar Network700.node270 	discovery_latency 	702
scalar Network700.node270 	number_of_desired_resources 	15
scalar Network700.node270 	query_homogenity_rate 	20
scalar Network700.node270 	qrecord_time 	11410
scalar Network700.node270 	discovery_resolution_rate 	100
scalar Network700.node450 	rate_of_requesters 	1
scalar Network700.node450 	number_of_resources 	38500
scalar Network700.node450 	time_period 	4
scalar Network700.node450 	number_of_messages 	107
scalar Network700.node450 	discovery_latency 	648
scalar Network700.node450 	number_of_desired_resources 	15
scalar Network700.node450 	query_homogenity_rate 	20
scalar Network700.node450 	qrecord_time 	11416
scalar Network700.node450 	discovery_resolution_rate 	100
scalar Network700.node530 	rate_of_requesters 	1
scalar Network700.node530 	number_of_resources 	38500
scalar Network700.node530 	time_period 	4
scalar Network700.node530 	number_of_messages 	95
scalar Network700.node530 	discovery_latency 	708
scalar Network700.node530 	number_of_desired_resources 	15
scalar Network700.node530 	query_homogenity_rate 	20
scalar Network700.node530 	qrecord_time 	11422
scalar Network700.node530 	discovery_resolution_rate 	100
scalar Network700.node220 	rate_of_requesters 	1
scalar Network700.node220 	number_of_resources 	38500
scalar Network700.node220 	time_period 	4
scalar Network700.node220 	number_of_messages 	77
scalar Network700.node220 	discovery_latency 	810
scalar Network700.node220 	number_of_desired_resources 	15
scalar Network700.node220 	query_homogenity_rate 	20
scalar Network700.node220 	qrecord_time 	11524
scalar Network700.node220 	discovery_resolution_rate 	100
scalar Network700.node260 	rate_of_requesters 	1
scalar Network700.node260 	number_of_resources 	38500
scalar Network700.node260 	time_period 	4
scalar Network700.node260 	number_of_messages 	87
scalar Network700.node260 	discovery_latency 	810
scalar Network700.node260 	number_of_desired_resources 	15
scalar Network700.node260 	query_homogenity_rate 	20
scalar Network700.node260 	qrecord_time 	11524
scalar Network700.node260 	discovery_resolution_rate 	100
scalar Network700.node470 	rate_of_requesters 	1
scalar Network700.node470 	number_of_resources 	38500
scalar Network700.node470 	time_period 	4
scalar Network700.node470 	number_of_messages 	88
scalar Network700.node470 	discovery_latency 	810
scalar Network700.node470 	number_of_desired_resources 	15
scalar Network700.node470 	query_homogenity_rate 	20
scalar Network700.node470 	qrecord_time 	11524
scalar Network700.node470 	discovery_resolution_rate 	100
scalar Network700.node630 	rate_of_requesters 	1
scalar Network700.node630 	number_of_resources 	38500
scalar Network700.node630 	time_period 	4
scalar Network700.node630 	number_of_messages 	78
scalar Network700.node630 	discovery_latency 	798
scalar Network700.node630 	number_of_desired_resources 	15
scalar Network700.node630 	query_homogenity_rate 	20
scalar Network700.node630 	qrecord_time 	11524
scalar Network700.node630 	discovery_resolution_rate 	100
scalar Network700.node40 	rate_of_requesters 	1
scalar Network700.node40 	number_of_resources 	38500
scalar Network700.node40 	time_period 	4
scalar Network700.node40 	number_of_messages 	87
scalar Network700.node40 	discovery_latency 	810
scalar Network700.node40 	number_of_desired_resources 	15
scalar Network700.node40 	query_homogenity_rate 	20
scalar Network700.node40 	qrecord_time 	11530
scalar Network700.node40 	discovery_resolution_rate 	100
