version 2
run net700-0-20150716-23:49:09-5449
attr as 1
attr configname net700
attr datetime 20150716-23:49:09
attr dnor 20
attr experiment net700
attr inifile omnetpp.ini
attr iterationvars "$rhdrq=3, $dnor=20, $as=1"
attr iterationvars2 "$rhdrq=3, $dnor=20, $as=1, $repetition=0"
attr measurement "$rhdrq=3, $dnor=20, $as=1"
attr network Network700
attr processid 5449
attr repetition 0
attr replication #0
attr resultdir results
attr rhdrq 3
attr runnumber 0
attr seedset 0

scalar . 	as 	1
scalar . 	dnor 	20
scalar . 	rhdrq 	3
scalar Network700.node160 	rate_of_requesters 	1
scalar Network700.node160 	number_of_resources 	38500
scalar Network700.node160 	time_period 	1
scalar Network700.node160 	number_of_messages 	29
scalar Network700.node160 	discovery_latency 	216
scalar Network700.node160 	number_of_desired_resources 	20
scalar Network700.node160 	query_homogenity_rate 	33.333333333333
scalar Network700.node160 	qrecord_time 	4900
scalar Network700.node160 	discovery_resolution_rate 	100
scalar Network700.node490 	rate_of_requesters 	1
scalar Network700.node490 	number_of_resources 	38500
scalar Network700.node490 	time_period 	1
scalar Network700.node490 	number_of_messages 	24
scalar Network700.node490 	discovery_latency 	168
scalar Network700.node490 	number_of_desired_resources 	20
scalar Network700.node490 	query_homogenity_rate 	33.333333333333
scalar Network700.node490 	qrecord_time 	4936
scalar Network700.node490 	discovery_resolution_rate 	100
scalar Network700.node90 	rate_of_requesters 	1
scalar Network700.node90 	number_of_resources 	38500
scalar Network700.node90 	time_period 	1
scalar Network700.node90 	number_of_messages 	45
scalar Network700.node90 	discovery_latency 	396
scalar Network700.node90 	number_of_desired_resources 	20
scalar Network700.node90 	query_homogenity_rate 	33.333333333333
scalar Network700.node90 	qrecord_time 	5110
scalar Network700.node90 	discovery_resolution_rate 	100
scalar Network700.node10 	rate_of_requesters 	1
scalar Network700.node10 	number_of_resources 	38500
scalar Network700.node10 	time_period 	1
scalar Network700.node10 	number_of_messages 	30
scalar Network700.node10 	discovery_latency 	420
scalar Network700.node10 	number_of_desired_resources 	20
scalar Network700.node10 	query_homogenity_rate 	33.333333333333
scalar Network700.node10 	qrecord_time 	5140
scalar Network700.node10 	discovery_resolution_rate 	100
scalar Network700.node400 	rate_of_requesters 	1
scalar Network700.node400 	number_of_resources 	38500
scalar Network700.node400 	time_period 	1
scalar Network700.node400 	number_of_messages 	21
scalar Network700.node400 	discovery_latency 	3912
scalar Network700.node400 	number_of_desired_resources 	20
scalar Network700.node400 	query_homogenity_rate 	33.333333333333
scalar Network700.node400 	qrecord_time 	8620
scalar Network700.node400 	discovery_resolution_rate 	66.666666666667
scalar Network700.node470 	rate_of_requesters 	1
scalar Network700.node470 	number_of_resources 	38500
scalar Network700.node470 	time_period 	1
scalar Network700.node470 	number_of_messages 	11
scalar Network700.node470 	discovery_latency 	3936
scalar Network700.node470 	number_of_desired_resources 	20
scalar Network700.node470 	query_homogenity_rate 	33.333333333333
scalar Network700.node470 	qrecord_time 	8668
scalar Network700.node470 	discovery_resolution_rate 	66.666666666667
scalar Network700.node650 	rate_of_requesters 	1
scalar Network700.node650 	number_of_resources 	38500
scalar Network700.node650 	time_period 	1
scalar Network700.node650 	number_of_messages 	19
scalar Network700.node650 	discovery_latency 	4008
scalar Network700.node650 	number_of_desired_resources 	20
scalar Network700.node650 	query_homogenity_rate 	33.333333333333
scalar Network700.node650 	qrecord_time 	8674
scalar Network700.node650 	discovery_resolution_rate 	66.666666666667
scalar Network700.node570 	rate_of_requesters 	1
scalar Network700.node570 	number_of_resources 	38500
scalar Network700.node570 	time_period 	1
scalar Network700.node570 	number_of_messages 	21
scalar Network700.node570 	discovery_latency 	4008
scalar Network700.node570 	number_of_desired_resources 	20
scalar Network700.node570 	query_homogenity_rate 	33.333333333333
scalar Network700.node570 	qrecord_time 	8716
scalar Network700.node570 	discovery_resolution_rate 	66.666666666667
scalar Network700.node0 	rate_of_requesters 	1
scalar Network700.node0 	number_of_resources 	38500
scalar Network700.node0 	time_period 	1
scalar Network700.node0 	number_of_messages 	18
scalar Network700.node0 	discovery_latency 	4008
scalar Network700.node0 	number_of_desired_resources 	20
scalar Network700.node0 	query_homogenity_rate 	33.333333333333
scalar Network700.node0 	qrecord_time 	8728
scalar Network700.node0 	discovery_resolution_rate 	66.666666666667
scalar Network700.node140 	rate_of_requesters 	1
scalar Network700.node140 	number_of_resources 	38500
scalar Network700.node140 	time_period 	1
scalar Network700.node140 	number_of_messages 	14
scalar Network700.node140 	discovery_latency 	4020
scalar Network700.node140 	number_of_desired_resources 	20
scalar Network700.node140 	query_homogenity_rate 	33.333333333333
scalar Network700.node140 	qrecord_time 	8788
scalar Network700.node140 	discovery_resolution_rate 	66.666666666667
scalar Network700.node610 	rate_of_requesters 	1
scalar Network700.node610 	number_of_resources 	38500
scalar Network700.node610 	time_period 	1
scalar Network700.node610 	number_of_messages 	41
scalar Network700.node610 	discovery_latency 	4152
scalar Network700.node610 	number_of_desired_resources 	20
scalar Network700.node610 	query_homogenity_rate 	33.333333333333
scalar Network700.node610 	qrecord_time 	8794
scalar Network700.node610 	discovery_resolution_rate 	66.666666666667
scalar Network700.node320 	rate_of_requesters 	1
scalar Network700.node320 	number_of_resources 	38500
scalar Network700.node320 	time_period 	1
scalar Network700.node320 	number_of_messages 	12
scalar Network700.node320 	discovery_latency 	4080
scalar Network700.node320 	number_of_desired_resources 	20
scalar Network700.node320 	query_homogenity_rate 	33.333333333333
scalar Network700.node320 	qrecord_time 	8818
scalar Network700.node320 	discovery_resolution_rate 	66.666666666667
scalar Network700.node100 	rate_of_requesters 	1
scalar Network700.node100 	number_of_resources 	38500
scalar Network700.node100 	time_period 	1
scalar Network700.node100 	number_of_messages 	13
scalar Network700.node100 	discovery_latency 	4068
scalar Network700.node100 	number_of_desired_resources 	20
scalar Network700.node100 	query_homogenity_rate 	33.333333333333
scalar Network700.node100 	qrecord_time 	8842
scalar Network700.node100 	discovery_resolution_rate 	66.666666666667
scalar Network700.node530 	rate_of_requesters 	1
scalar Network700.node530 	number_of_resources 	38500
scalar Network700.node530 	time_period 	1
scalar Network700.node530 	number_of_messages 	21
scalar Network700.node530 	discovery_latency 	4092
scalar Network700.node530 	number_of_desired_resources 	20
scalar Network700.node530 	query_homogenity_rate 	33.333333333333
scalar Network700.node530 	qrecord_time 	8842
scalar Network700.node530 	discovery_resolution_rate 	66.666666666667
scalar Network700.node270 	rate_of_requesters 	1
scalar Network700.node270 	number_of_resources 	38500
scalar Network700.node270 	time_period 	1
scalar Network700.node270 	number_of_messages 	40
scalar Network700.node270 	discovery_latency 	4080
scalar Network700.node270 	number_of_desired_resources 	20
scalar Network700.node270 	query_homogenity_rate 	33.333333333333
scalar Network700.node270 	qrecord_time 	8890
scalar Network700.node270 	discovery_resolution_rate 	66.666666666667
scalar Network700.node50 	rate_of_requesters 	1
scalar Network700.node50 	number_of_resources 	38500
scalar Network700.node50 	time_period 	1
scalar Network700.node50 	number_of_messages 	18
scalar Network700.node50 	discovery_latency 	4212
scalar Network700.node50 	number_of_desired_resources 	20
scalar Network700.node50 	query_homogenity_rate 	33.333333333333
scalar Network700.node50 	qrecord_time 	8920
scalar Network700.node50 	discovery_resolution_rate 	66.666666666667
scalar Network700.node250 	rate_of_requesters 	1
scalar Network700.node250 	number_of_resources 	38500
scalar Network700.node250 	time_period 	1
scalar Network700.node250 	number_of_messages 	25
scalar Network700.node250 	discovery_latency 	4260
scalar Network700.node250 	number_of_desired_resources 	20
scalar Network700.node250 	query_homogenity_rate 	33.333333333333
scalar Network700.node250 	qrecord_time 	8956
scalar Network700.node250 	discovery_resolution_rate 	66.666666666667
scalar Network700.node460 	rate_of_requesters 	1
scalar Network700.node460 	number_of_resources 	38500
scalar Network700.node460 	time_period 	1
scalar Network700.node460 	number_of_messages 	27
scalar Network700.node460 	discovery_latency 	4284
scalar Network700.node460 	number_of_desired_resources 	20
scalar Network700.node460 	query_homogenity_rate 	33.333333333333
scalar Network700.node460 	qrecord_time 	8992
scalar Network700.node460 	discovery_resolution_rate 	66.666666666667
scalar Network700.node420 	rate_of_requesters 	1
scalar Network700.node420 	number_of_resources 	38500
scalar Network700.node420 	time_period 	1
scalar Network700.node420 	number_of_messages 	18
scalar Network700.node420 	discovery_latency 	4212
scalar Network700.node420 	number_of_desired_resources 	20
scalar Network700.node420 	query_homogenity_rate 	33.333333333333
scalar Network700.node420 	qrecord_time 	9004
scalar Network700.node420 	discovery_resolution_rate 	66.666666666667
scalar Network700.node150 	rate_of_requesters 	1
scalar Network700.node150 	number_of_resources 	38500
scalar Network700.node150 	time_period 	1
scalar Network700.node150 	number_of_messages 	18
scalar Network700.node150 	discovery_latency 	4368
scalar Network700.node150 	number_of_desired_resources 	20
scalar Network700.node150 	query_homogenity_rate 	33.333333333333
scalar Network700.node150 	qrecord_time 	9010
scalar Network700.node150 	discovery_resolution_rate 	33.333333333333
scalar Network700.node120 	rate_of_requesters 	1
scalar Network700.node120 	number_of_resources 	38500
scalar Network700.node120 	time_period 	1
scalar Network700.node120 	number_of_messages 	4
scalar Network700.node120 	discovery_latency 	4284
scalar Network700.node120 	number_of_desired_resources 	20
scalar Network700.node120 	query_homogenity_rate 	33.333333333333
scalar Network700.node120 	qrecord_time 	9028
scalar Network700.node120 	discovery_resolution_rate 	33.333333333333
scalar Network700.node190 	rate_of_requesters 	1
scalar Network700.node190 	number_of_resources 	38500
scalar Network700.node190 	time_period 	1
scalar Network700.node190 	number_of_messages 	13
scalar Network700.node190 	discovery_latency 	4308
scalar Network700.node190 	number_of_desired_resources 	20
scalar Network700.node190 	query_homogenity_rate 	33.333333333333
scalar Network700.node190 	qrecord_time 	9064
scalar Network700.node190 	discovery_resolution_rate 	66.666666666667
scalar Network700.node470 	rate_of_requesters 	1
scalar Network700.node470 	number_of_resources 	38500
scalar Network700.node470 	time_period 	2
scalar Network700.node470 	number_of_messages 	57
scalar Network700.node470 	discovery_latency 	4332
scalar Network700.node470 	number_of_desired_resources 	20
scalar Network700.node470 	query_homogenity_rate 	33.333333333333
scalar Network700.node470 	qrecord_time 	9113.763226807
scalar Network700.node470 	discovery_resolution_rate 	33.333333333333
scalar Network700.node550 	rate_of_requesters 	1
scalar Network700.node550 	number_of_resources 	38500
scalar Network700.node550 	time_period 	1
scalar Network700.node550 	number_of_messages 	212
scalar Network700.node550 	discovery_latency 	4344
scalar Network700.node550 	number_of_desired_resources 	20
scalar Network700.node550 	query_homogenity_rate 	33.333333333333
scalar Network700.node550 	qrecord_time 	9118
scalar Network700.node550 	discovery_resolution_rate 	50
scalar Network700.node240 	rate_of_requesters 	1
scalar Network700.node240 	number_of_resources 	38500
scalar Network700.node240 	time_period 	1
scalar Network700.node240 	number_of_messages 	69
scalar Network700.node240 	discovery_latency 	4452
scalar Network700.node240 	number_of_desired_resources 	20
scalar Network700.node240 	query_homogenity_rate 	33.333333333333
scalar Network700.node240 	qrecord_time 	9118
scalar Network700.node240 	discovery_resolution_rate 	33.333333333333
scalar Network700.node660 	rate_of_requesters 	1
scalar Network700.node660 	number_of_resources 	38500
scalar Network700.node660 	time_period 	1
scalar Network700.node660 	number_of_messages 	9
scalar Network700.node660 	discovery_latency 	4428
scalar Network700.node660 	number_of_desired_resources 	20
scalar Network700.node660 	query_homogenity_rate 	33.333333333333
scalar Network700.node660 	qrecord_time 	9142
scalar Network700.node660 	discovery_resolution_rate 	33.333333333333
scalar Network700.node690 	rate_of_requesters 	1
scalar Network700.node690 	number_of_resources 	38500
scalar Network700.node690 	time_period 	1
scalar Network700.node690 	number_of_messages 	4
scalar Network700.node690 	discovery_latency 	4440
scalar Network700.node690 	number_of_desired_resources 	20
scalar Network700.node690 	query_homogenity_rate 	33.333333333333
scalar Network700.node690 	qrecord_time 	9148
scalar Network700.node690 	discovery_resolution_rate 	33.333333333333
scalar Network700.node330 	rate_of_requesters 	1
scalar Network700.node330 	number_of_resources 	38500
scalar Network700.node330 	time_period 	1
scalar Network700.node330 	number_of_messages 	69
scalar Network700.node330 	discovery_latency 	4464
scalar Network700.node330 	number_of_desired_resources 	20
scalar Network700.node330 	query_homogenity_rate 	33.333333333333
scalar Network700.node330 	qrecord_time 	9172
scalar Network700.node330 	discovery_resolution_rate 	33.333333333333
scalar Network700.node70 	rate_of_requesters 	1
scalar Network700.node70 	number_of_resources 	38500
scalar Network700.node70 	time_period 	1
scalar Network700.node70 	number_of_messages 	15
scalar Network700.node70 	discovery_latency 	4464
scalar Network700.node70 	number_of_desired_resources 	20
scalar Network700.node70 	query_homogenity_rate 	33.333333333333
scalar Network700.node70 	qrecord_time 	9178
scalar Network700.node70 	discovery_resolution_rate 	66.666666666667
scalar Network700.node620 	rate_of_requesters 	1
scalar Network700.node620 	number_of_resources 	38500
scalar Network700.node620 	time_period 	1
scalar Network700.node620 	number_of_messages 	64
scalar Network700.node620 	discovery_latency 	4428
scalar Network700.node620 	number_of_desired_resources 	20
scalar Network700.node620 	query_homogenity_rate 	33.333333333333
scalar Network700.node620 	qrecord_time 	9184
scalar Network700.node620 	discovery_resolution_rate 	33.333333333333
scalar Network700.node680 	rate_of_requesters 	1
scalar Network700.node680 	number_of_resources 	38500
scalar Network700.node680 	time_period 	1
scalar Network700.node680 	number_of_messages 	13
scalar Network700.node680 	discovery_latency 	4452
scalar Network700.node680 	number_of_desired_resources 	20
scalar Network700.node680 	query_homogenity_rate 	33.333333333333
scalar Network700.node680 	qrecord_time 	9190
scalar Network700.node680 	discovery_resolution_rate 	33.333333333333
scalar Network700.node110 	rate_of_requesters 	1
scalar Network700.node110 	number_of_resources 	38500
scalar Network700.node110 	time_period 	1
scalar Network700.node110 	number_of_messages 	6
scalar Network700.node110 	discovery_latency 	4464
scalar Network700.node110 	number_of_desired_resources 	20
scalar Network700.node110 	query_homogenity_rate 	33.333333333333
scalar Network700.node110 	qrecord_time 	9196
scalar Network700.node110 	discovery_resolution_rate 	33.333333333333
scalar Network700.node350 	rate_of_requesters 	1
scalar Network700.node350 	number_of_resources 	38500
scalar Network700.node350 	time_period 	1
scalar Network700.node350 	number_of_messages 	10
scalar Network700.node350 	discovery_latency 	4404
scalar Network700.node350 	number_of_desired_resources 	20
scalar Network700.node350 	query_homogenity_rate 	33.333333333333
scalar Network700.node350 	qrecord_time 	9202
scalar Network700.node350 	discovery_resolution_rate 	33.333333333333
scalar Network700.node450 	rate_of_requesters 	1
scalar Network700.node450 	number_of_resources 	38500
scalar Network700.node450 	time_period 	1
scalar Network700.node450 	number_of_messages 	23
scalar Network700.node450 	discovery_latency 	4428
scalar Network700.node450 	number_of_desired_resources 	20
scalar Network700.node450 	query_homogenity_rate 	33.333333333333
scalar Network700.node450 	qrecord_time 	9202
scalar Network700.node450 	discovery_resolution_rate 	33.333333333333
scalar Network700.node280 	rate_of_requesters 	1
scalar Network700.node280 	number_of_resources 	38500
scalar Network700.node280 	time_period 	1
scalar Network700.node280 	number_of_messages 	6
scalar Network700.node280 	discovery_latency 	4488
scalar Network700.node280 	number_of_desired_resources 	20
scalar Network700.node280 	query_homogenity_rate 	33.333333333333
scalar Network700.node280 	qrecord_time 	9208
scalar Network700.node280 	discovery_resolution_rate 	33.333333333333
scalar Network700.node80 	rate_of_requesters 	1
scalar Network700.node80 	number_of_resources 	38500
scalar Network700.node80 	time_period 	1
scalar Network700.node80 	number_of_messages 	8
scalar Network700.node80 	discovery_latency 	4500
scalar Network700.node80 	number_of_desired_resources 	20
scalar Network700.node80 	query_homogenity_rate 	33.333333333333
scalar Network700.node80 	qrecord_time 	9214
scalar Network700.node80 	discovery_resolution_rate 	33.333333333333
scalar Network700.node130 	rate_of_requesters 	1
scalar Network700.node130 	number_of_resources 	38500
scalar Network700.node130 	time_period 	1
scalar Network700.node130 	number_of_messages 	8
scalar Network700.node130 	discovery_latency 	4488
scalar Network700.node130 	number_of_desired_resources 	20
scalar Network700.node130 	query_homogenity_rate 	33.333333333333
scalar Network700.node130 	qrecord_time 	9220
scalar Network700.node130 	discovery_resolution_rate 	33.333333333333
scalar Network700.node20 	rate_of_requesters 	1
scalar Network700.node20 	number_of_resources 	38500
scalar Network700.node20 	time_period 	1
scalar Network700.node20 	number_of_messages 	5
scalar Network700.node20 	discovery_latency 	4488
scalar Network700.node20 	number_of_desired_resources 	20
scalar Network700.node20 	query_homogenity_rate 	33.333333333333
scalar Network700.node20 	qrecord_time 	9238
scalar Network700.node20 	discovery_resolution_rate 	33.333333333333
scalar Network700.node380 	rate_of_requesters 	1
scalar Network700.node380 	number_of_resources 	38500
scalar Network700.node380 	time_period 	1
scalar Network700.node380 	number_of_messages 	6
scalar Network700.node380 	discovery_latency 	4464
scalar Network700.node380 	number_of_desired_resources 	20
scalar Network700.node380 	query_homogenity_rate 	33.333333333333
scalar Network700.node380 	qrecord_time 	9238
scalar Network700.node380 	discovery_resolution_rate 	33.333333333333
scalar Network700.node390 	rate_of_requesters 	1
scalar Network700.node390 	number_of_resources 	38500
scalar Network700.node390 	time_period 	1
scalar Network700.node390 	number_of_messages 	11
scalar Network700.node390 	discovery_latency 	4488
scalar Network700.node390 	number_of_desired_resources 	20
scalar Network700.node390 	query_homogenity_rate 	33.333333333333
scalar Network700.node390 	qrecord_time 	9256
scalar Network700.node390 	discovery_resolution_rate 	33.333333333333
scalar Network700.node370 	rate_of_requesters 	1
scalar Network700.node370 	number_of_resources 	38500
scalar Network700.node370 	time_period 	1
scalar Network700.node370 	number_of_messages 	62
scalar Network700.node370 	discovery_latency 	4464
scalar Network700.node370 	number_of_desired_resources 	20
scalar Network700.node370 	query_homogenity_rate 	33.333333333333
scalar Network700.node370 	qrecord_time 	9262
scalar Network700.node370 	discovery_resolution_rate 	33.333333333333
scalar Network700.node200 	rate_of_requesters 	1
scalar Network700.node200 	number_of_resources 	38500
scalar Network700.node200 	time_period 	1
scalar Network700.node200 	number_of_messages 	12
scalar Network700.node200 	discovery_latency 	4500
scalar Network700.node200 	number_of_desired_resources 	20
scalar Network700.node200 	query_homogenity_rate 	33.333333333333
scalar Network700.node200 	qrecord_time 	9274
scalar Network700.node200 	discovery_resolution_rate 	66.666666666667
scalar Network700.node580 	rate_of_requesters 	1
scalar Network700.node580 	number_of_resources 	38500
scalar Network700.node580 	time_period 	1
scalar Network700.node580 	number_of_messages 	6
scalar Network700.node580 	discovery_latency 	4560
scalar Network700.node580 	number_of_desired_resources 	20
scalar Network700.node580 	query_homogenity_rate 	33.333333333333
scalar Network700.node580 	qrecord_time 	9274
scalar Network700.node580 	discovery_resolution_rate 	33.333333333333
scalar Network700.node410 	rate_of_requesters 	1
scalar Network700.node410 	number_of_resources 	38500
scalar Network700.node410 	time_period 	1
scalar Network700.node410 	number_of_messages 	8
scalar Network700.node410 	discovery_latency 	4524
scalar Network700.node410 	number_of_desired_resources 	20
scalar Network700.node410 	query_homogenity_rate 	33.333333333333
scalar Network700.node410 	qrecord_time 	9274
scalar Network700.node410 	discovery_resolution_rate 	33.333333333333
scalar Network700.node210 	rate_of_requesters 	1
scalar Network700.node210 	number_of_resources 	38500
scalar Network700.node210 	time_period 	1
scalar Network700.node210 	number_of_messages 	23
scalar Network700.node210 	discovery_latency 	4536
scalar Network700.node210 	number_of_desired_resources 	20
scalar Network700.node210 	query_homogenity_rate 	33.333333333333
scalar Network700.node210 	qrecord_time 	9292
scalar Network700.node210 	discovery_resolution_rate 	66.666666666667
scalar Network700.node20 	rate_of_requesters 	1
scalar Network700.node20 	number_of_resources 	38500
scalar Network700.node20 	time_period 	2
scalar Network700.node20 	number_of_messages 	108
scalar Network700.node20 	discovery_latency 	4428
scalar Network700.node20 	number_of_desired_resources 	20
scalar Network700.node20 	query_homogenity_rate 	33.333333333333
scalar Network700.node20 	qrecord_time 	9295.938043706
scalar Network700.node20 	discovery_resolution_rate 	33.333333333333
scalar Network700.node290 	rate_of_requesters 	1
scalar Network700.node290 	number_of_resources 	38500
scalar Network700.node290 	time_period 	1
scalar Network700.node290 	number_of_messages 	8
scalar Network700.node290 	discovery_latency 	4548
scalar Network700.node290 	number_of_desired_resources 	20
scalar Network700.node290 	query_homogenity_rate 	33.333333333333
scalar Network700.node290 	qrecord_time 	9298
scalar Network700.node290 	discovery_resolution_rate 	33.333333333333
scalar Network700.node630 	rate_of_requesters 	1
scalar Network700.node630 	number_of_resources 	38500
scalar Network700.node630 	time_period 	1
scalar Network700.node630 	number_of_messages 	11
scalar Network700.node630 	discovery_latency 	4608
scalar Network700.node630 	number_of_desired_resources 	20
scalar Network700.node630 	query_homogenity_rate 	33.333333333333
scalar Network700.node630 	qrecord_time 	9298
scalar Network700.node630 	discovery_resolution_rate 	33.333333333333
scalar Network700.node220 	rate_of_requesters 	1
scalar Network700.node220 	number_of_resources 	38500
scalar Network700.node220 	time_period 	1
scalar Network700.node220 	number_of_messages 	6
scalar Network700.node220 	discovery_latency 	4488
scalar Network700.node220 	number_of_desired_resources 	20
scalar Network700.node220 	query_homogenity_rate 	33.333333333333
scalar Network700.node220 	qrecord_time 	9298
scalar Network700.node220 	discovery_resolution_rate 	33.333333333333
scalar Network700.node560 	rate_of_requesters 	1
scalar Network700.node560 	number_of_resources 	38500
scalar Network700.node560 	time_period 	1
scalar Network700.node560 	number_of_messages 	8
scalar Network700.node560 	discovery_latency 	4524
scalar Network700.node560 	number_of_desired_resources 	20
scalar Network700.node560 	query_homogenity_rate 	33.333333333333
scalar Network700.node560 	qrecord_time 	9316
scalar Network700.node560 	discovery_resolution_rate 	33.333333333333
scalar Network700.node40 	rate_of_requesters 	1
scalar Network700.node40 	number_of_resources 	38500
scalar Network700.node40 	time_period 	1
scalar Network700.node40 	number_of_messages 	16
scalar Network700.node40 	discovery_latency 	4608
scalar Network700.node40 	number_of_desired_resources 	20
scalar Network700.node40 	query_homogenity_rate 	33.333333333333
scalar Network700.node40 	qrecord_time 	9322
scalar Network700.node40 	discovery_resolution_rate 	33.333333333333
scalar Network700.node520 	rate_of_requesters 	1
scalar Network700.node520 	number_of_resources 	38500
scalar Network700.node520 	time_period 	1
scalar Network700.node520 	number_of_messages 	57
scalar Network700.node520 	discovery_latency 	4524
scalar Network700.node520 	number_of_desired_resources 	20
scalar Network700.node520 	query_homogenity_rate 	33.333333333333
scalar Network700.node520 	qrecord_time 	9334
scalar Network700.node520 	discovery_resolution_rate 	33.333333333333
scalar Network700.node180 	rate_of_requesters 	1
scalar Network700.node180 	number_of_resources 	38500
scalar Network700.node180 	time_period 	1
scalar Network700.node180 	number_of_messages 	5
scalar Network700.node180 	discovery_latency 	4596
scalar Network700.node180 	number_of_desired_resources 	20
scalar Network700.node180 	query_homogenity_rate 	33.333333333333
scalar Network700.node180 	qrecord_time 	9352
scalar Network700.node180 	discovery_resolution_rate 	33.333333333333
scalar Network700.node230 	rate_of_requesters 	1
scalar Network700.node230 	number_of_resources 	38500
scalar Network700.node230 	time_period 	1
scalar Network700.node230 	number_of_messages 	16
scalar Network700.node230 	discovery_latency 	4668
scalar Network700.node230 	number_of_desired_resources 	20
scalar Network700.node230 	query_homogenity_rate 	33.333333333333
scalar Network700.node230 	qrecord_time 	9358
scalar Network700.node230 	discovery_resolution_rate 	33.333333333333
scalar Network700.node500 	rate_of_requesters 	1
scalar Network700.node500 	number_of_resources 	38500
scalar Network700.node500 	time_period 	1
scalar Network700.node500 	number_of_messages 	23
scalar Network700.node500 	discovery_latency 	4536
scalar Network700.node500 	number_of_desired_resources 	20
scalar Network700.node500 	query_homogenity_rate 	33.333333333333
scalar Network700.node500 	qrecord_time 	9370
scalar Network700.node500 	discovery_resolution_rate 	33.333333333333
scalar Network700.node670 	rate_of_requesters 	1
scalar Network700.node670 	number_of_resources 	38500
scalar Network700.node670 	time_period 	1
scalar Network700.node670 	number_of_messages 	104
scalar Network700.node670 	discovery_latency 	4656
scalar Network700.node670 	number_of_desired_resources 	20
scalar Network700.node670 	query_homogenity_rate 	33.333333333333
scalar Network700.node670 	qrecord_time 	9382
scalar Network700.node670 	discovery_resolution_rate 	33.333333333333
scalar Network700.node170 	rate_of_requesters 	1
scalar Network700.node170 	number_of_resources 	38500
scalar Network700.node170 	time_period 	1
scalar Network700.node170 	number_of_messages 	116
scalar Network700.node170 	discovery_latency 	4668
scalar Network700.node170 	number_of_desired_resources 	20
scalar Network700.node170 	query_homogenity_rate 	33.333333333333
scalar Network700.node170 	qrecord_time 	9388
scalar Network700.node170 	discovery_resolution_rate 	33.333333333333
scalar Network700.node430 	rate_of_requesters 	1
scalar Network700.node430 	number_of_resources 	38500
scalar Network700.node430 	time_period 	1
scalar Network700.node430 	number_of_messages 	11
scalar Network700.node430 	discovery_latency 	4704
scalar Network700.node430 	number_of_desired_resources 	20
scalar Network700.node430 	query_homogenity_rate 	33.333333333333
scalar Network700.node430 	qrecord_time 	9418
scalar Network700.node430 	discovery_resolution_rate 	33.333333333333
scalar Network700.node30 	rate_of_requesters 	1
scalar Network700.node30 	number_of_resources 	38500
scalar Network700.node30 	time_period 	1
scalar Network700.node30 	number_of_messages 	7
scalar Network700.node30 	discovery_latency 	4656
scalar Network700.node30 	number_of_desired_resources 	20
scalar Network700.node30 	query_homogenity_rate 	33.333333333333
scalar Network700.node30 	qrecord_time 	9448
scalar Network700.node30 	discovery_resolution_rate 	33.333333333333
scalar Network700.node640 	rate_of_requesters 	1
scalar Network700.node640 	number_of_resources 	38500
scalar Network700.node640 	time_period 	1
scalar Network700.node640 	number_of_messages 	6
scalar Network700.node640 	discovery_latency 	4680
scalar Network700.node640 	number_of_desired_resources 	20
scalar Network700.node640 	query_homogenity_rate 	33.333333333333
scalar Network700.node640 	qrecord_time 	9454
scalar Network700.node640 	discovery_resolution_rate 	33.333333333333
scalar Network700.node40 	rate_of_requesters 	1
scalar Network700.node40 	number_of_resources 	38500
scalar Network700.node40 	time_period 	2
scalar Network700.node40 	number_of_messages 	79
scalar Network700.node40 	discovery_latency 	4380
scalar Network700.node40 	number_of_desired_resources 	20
scalar Network700.node40 	query_homogenity_rate 	33.333333333333
scalar Network700.node40 	qrecord_time 	9511.775705445
scalar Network700.node40 	discovery_resolution_rate 	33.333333333333
scalar Network700.node510 	rate_of_requesters 	1
scalar Network700.node510 	number_of_resources 	38500
scalar Network700.node510 	time_period 	1
scalar Network700.node510 	number_of_messages 	286
scalar Network700.node510 	discovery_latency 	5652
scalar Network700.node510 	number_of_desired_resources 	20
scalar Network700.node510 	query_homogenity_rate 	33.333333333333
scalar Network700.node510 	qrecord_time 	10492
scalar Network700.node510 	discovery_resolution_rate 	16.666666666667
scalar Network700.node590 	rate_of_requesters 	1
scalar Network700.node590 	number_of_resources 	38500
scalar Network700.node590 	time_period 	1
scalar Network700.node590 	number_of_messages 	13
scalar Network700.node590 	discovery_latency 	5808
scalar Network700.node590 	number_of_desired_resources 	20
scalar Network700.node590 	query_homogenity_rate 	33.333333333333
scalar Network700.node590 	qrecord_time 	10492
scalar Network700.node590 	discovery_resolution_rate 	33.333333333333
scalar Network700.node360 	rate_of_requesters 	1
scalar Network700.node360 	number_of_resources 	38500
scalar Network700.node360 	time_period 	1
scalar Network700.node360 	number_of_messages 	486
scalar Network700.node360 	discovery_latency 	5700
scalar Network700.node360 	number_of_desired_resources 	20
scalar Network700.node360 	query_homogenity_rate 	33.333333333333
scalar Network700.node360 	qrecord_time 	10510
scalar Network700.node360 	discovery_resolution_rate 	66.666666666667
scalar Network700.node480 	rate_of_requesters 	1
scalar Network700.node480 	number_of_resources 	38500
scalar Network700.node480 	time_period 	1
scalar Network700.node480 	number_of_messages 	2
scalar Network700.node480 	discovery_latency 	5724
scalar Network700.node480 	number_of_desired_resources 	20
scalar Network700.node480 	query_homogenity_rate 	33.333333333333
scalar Network700.node480 	qrecord_time 	10510
scalar Network700.node480 	discovery_resolution_rate 	0
scalar Network700.node310 	rate_of_requesters 	1
scalar Network700.node310 	number_of_resources 	38500
scalar Network700.node310 	time_period 	1
scalar Network700.node310 	number_of_messages 	286
scalar Network700.node310 	discovery_latency 	5664
scalar Network700.node310 	number_of_desired_resources 	20
scalar Network700.node310 	query_homogenity_rate 	33.333333333333
scalar Network700.node310 	qrecord_time 	10540
scalar Network700.node310 	discovery_resolution_rate 	16.666666666667
scalar Network700.node260 	rate_of_requesters 	1
scalar Network700.node260 	number_of_resources 	38500
scalar Network700.node260 	time_period 	1
scalar Network700.node260 	number_of_messages 	2
scalar Network700.node260 	discovery_latency 	5772
scalar Network700.node260 	number_of_desired_resources 	20
scalar Network700.node260 	query_homogenity_rate 	33.333333333333
scalar Network700.node260 	qrecord_time 	10540
scalar Network700.node260 	discovery_resolution_rate 	0
scalar Network700.node440 	rate_of_requesters 	1
scalar Network700.node440 	number_of_resources 	38500
scalar Network700.node440 	time_period 	1
scalar Network700.node440 	number_of_messages 	286
scalar Network700.node440 	discovery_latency 	5808
scalar Network700.node440 	number_of_desired_resources 	20
scalar Network700.node440 	query_homogenity_rate 	33.333333333333
scalar Network700.node440 	qrecord_time 	10546
scalar Network700.node440 	discovery_resolution_rate 	16.666666666667
scalar Network700.node600 	rate_of_requesters 	1
scalar Network700.node600 	number_of_resources 	38500
scalar Network700.node600 	time_period 	1
scalar Network700.node600 	number_of_messages 	2
scalar Network700.node600 	discovery_latency 	5748
scalar Network700.node600 	number_of_desired_resources 	20
scalar Network700.node600 	query_homogenity_rate 	33.333333333333
scalar Network700.node600 	qrecord_time 	10558
scalar Network700.node600 	discovery_resolution_rate 	0
scalar Network700.node340 	rate_of_requesters 	1
scalar Network700.node340 	number_of_resources 	38500
scalar Network700.node340 	time_period 	1
scalar Network700.node340 	number_of_messages 	2
scalar Network700.node340 	discovery_latency 	5820
scalar Network700.node340 	number_of_desired_resources 	20
scalar Network700.node340 	query_homogenity_rate 	33.333333333333
scalar Network700.node340 	qrecord_time 	10558
scalar Network700.node340 	discovery_resolution_rate 	0
scalar Network700.node300 	rate_of_requesters 	1
scalar Network700.node300 	number_of_resources 	38500
scalar Network700.node300 	time_period 	1
scalar Network700.node300 	number_of_messages 	2
scalar Network700.node300 	discovery_latency 	5880
scalar Network700.node300 	number_of_desired_resources 	20
scalar Network700.node300 	query_homogenity_rate 	33.333333333333
scalar Network700.node300 	qrecord_time 	10594
scalar Network700.node300 	discovery_resolution_rate 	0
scalar Network700.node60 	rate_of_requesters 	1
scalar Network700.node60 	number_of_resources 	38500
scalar Network700.node60 	time_period 	1
scalar Network700.node60 	number_of_messages 	2
scalar Network700.node60 	discovery_latency 	5808
scalar Network700.node60 	number_of_desired_resources 	20
scalar Network700.node60 	query_homogenity_rate 	33.333333333333
scalar Network700.node60 	qrecord_time 	10612
scalar Network700.node60 	discovery_resolution_rate 	0
scalar Network700.node540 	rate_of_requesters 	1
scalar Network700.node540 	number_of_resources 	38500
scalar Network700.node540 	time_period 	1
scalar Network700.node540 	number_of_messages 	286
scalar Network700.node540 	discovery_latency 	5868
scalar Network700.node540 	number_of_desired_resources 	20
scalar Network700.node540 	query_homogenity_rate 	33.333333333333
scalar Network700.node540 	qrecord_time 	10678
scalar Network700.node540 	discovery_resolution_rate 	16.666666666667
scalar Network700.node270 	rate_of_requesters 	1
scalar Network700.node270 	number_of_resources 	38500
scalar Network700.node270 	time_period 	2
scalar Network700.node270 	number_of_messages 	2
scalar Network700.node270 	discovery_latency 	5700
scalar Network700.node270 	number_of_desired_resources 	20
scalar Network700.node270 	query_homogenity_rate 	33.333333333333
scalar Network700.node270 	qrecord_time 	10678.73531291
scalar Network700.node270 	discovery_resolution_rate 	0
scalar Network700.node20 	rate_of_requesters 	1
scalar Network700.node20 	number_of_resources 	38500
scalar Network700.node20 	time_period 	3
scalar Network700.node20 	number_of_messages 	2
scalar Network700.node20 	discovery_latency 	5832
scalar Network700.node20 	number_of_desired_resources 	20
scalar Network700.node20 	query_homogenity_rate 	33.333333333333
scalar Network700.node20 	qrecord_time 	10726.249615788
scalar Network700.node20 	discovery_resolution_rate 	0
scalar Network700.node470 	rate_of_requesters 	1
scalar Network700.node470 	number_of_resources 	38500
scalar Network700.node470 	time_period 	3
scalar Network700.node470 	number_of_messages 	2
scalar Network700.node470 	discovery_latency 	5856
scalar Network700.node470 	number_of_desired_resources 	20
scalar Network700.node470 	query_homogenity_rate 	33.333333333333
scalar Network700.node470 	qrecord_time 	10729.721996335
scalar Network700.node470 	discovery_resolution_rate 	0
scalar Network700.node580 	rate_of_requesters 	1
scalar Network700.node580 	number_of_resources 	38500
scalar Network700.node580 	time_period 	2
scalar Network700.node580 	number_of_messages 	301
scalar Network700.node580 	discovery_latency 	5952
scalar Network700.node580 	number_of_desired_resources 	20
scalar Network700.node580 	query_homogenity_rate 	33.333333333333
scalar Network700.node580 	qrecord_time 	10756.009722767
scalar Network700.node580 	discovery_resolution_rate 	50
scalar Network700.node200 	rate_of_requesters 	1
scalar Network700.node200 	number_of_resources 	38500
scalar Network700.node200 	time_period 	2
scalar Network700.node200 	number_of_messages 	2
scalar Network700.node200 	discovery_latency 	5736
scalar Network700.node200 	number_of_desired_resources 	20
scalar Network700.node200 	query_homogenity_rate 	33.333333333333
scalar Network700.node200 	qrecord_time 	10770.577536999
scalar Network700.node200 	discovery_resolution_rate 	0
scalar Network700.node320 	rate_of_requesters 	1
scalar Network700.node320 	number_of_resources 	38500
scalar Network700.node320 	time_period 	2
scalar Network700.node320 	number_of_messages 	2
scalar Network700.node320 	discovery_latency 	5820
scalar Network700.node320 	number_of_desired_resources 	20
scalar Network700.node320 	query_homogenity_rate 	33.333333333333
scalar Network700.node320 	qrecord_time 	10929.427016469
scalar Network700.node320 	discovery_resolution_rate 	0
scalar Network700.node140 	rate_of_requesters 	1
scalar Network700.node140 	number_of_resources 	38500
scalar Network700.node140 	time_period 	2
scalar Network700.node140 	number_of_messages 	2
scalar Network700.node140 	discovery_latency 	5880
scalar Network700.node140 	number_of_desired_resources 	20
scalar Network700.node140 	query_homogenity_rate 	33.333333333333
scalar Network700.node140 	qrecord_time 	11203.911581488
scalar Network700.node140 	discovery_resolution_rate 	0
scalar Network700.node180 	rate_of_requesters 	1
scalar Network700.node180 	number_of_resources 	38500
scalar Network700.node180 	time_period 	2
scalar Network700.node180 	number_of_messages 	180
scalar Network700.node180 	discovery_latency 	4488
scalar Network700.node180 	number_of_desired_resources 	20
scalar Network700.node180 	query_homogenity_rate 	33.333333333333
scalar Network700.node180 	qrecord_time 	11219.59292985
scalar Network700.node180 	discovery_resolution_rate 	50
scalar Network700.node400 	rate_of_requesters 	1
scalar Network700.node400 	number_of_resources 	38500
scalar Network700.node400 	time_period 	2
scalar Network700.node400 	number_of_messages 	2
scalar Network700.node400 	discovery_latency 	5736
scalar Network700.node400 	number_of_desired_resources 	20
scalar Network700.node400 	query_homogenity_rate 	33.333333333333
scalar Network700.node400 	qrecord_time 	11234.087466515
scalar Network700.node400 	discovery_resolution_rate 	0
scalar Network700.node420 	rate_of_requesters 	1
scalar Network700.node420 	number_of_resources 	38500
scalar Network700.node420 	time_period 	2
scalar Network700.node420 	number_of_messages 	2
scalar Network700.node420 	discovery_latency 	5832
scalar Network700.node420 	number_of_desired_resources 	20
scalar Network700.node420 	query_homogenity_rate 	33.333333333333
scalar Network700.node420 	qrecord_time 	11315.96339757
scalar Network700.node420 	discovery_resolution_rate 	0
scalar Network700.node520 	rate_of_requesters 	1
scalar Network700.node520 	number_of_resources 	38500
scalar Network700.node520 	time_period 	2
scalar Network700.node520 	number_of_messages 	2
scalar Network700.node520 	discovery_latency 	5736
scalar Network700.node520 	number_of_desired_resources 	20
scalar Network700.node520 	query_homogenity_rate 	33.333333333333
scalar Network700.node520 	qrecord_time 	11368.57719301
scalar Network700.node520 	discovery_resolution_rate 	0
scalar Network700.node510 	rate_of_requesters 	1
scalar Network700.node510 	number_of_resources 	38500
scalar Network700.node510 	time_period 	2
scalar Network700.node510 	number_of_messages 	2
scalar Network700.node510 	discovery_latency 	5856
scalar Network700.node510 	number_of_desired_resources 	20
scalar Network700.node510 	query_homogenity_rate 	33.333333333333
scalar Network700.node510 	qrecord_time 	11495.461802058
scalar Network700.node510 	discovery_resolution_rate 	0
scalar Network700.node690 	rate_of_requesters 	1
scalar Network700.node690 	number_of_resources 	38500
scalar Network700.node690 	time_period 	2
scalar Network700.node690 	number_of_messages 	2
scalar Network700.node690 	discovery_latency 	5736
scalar Network700.node690 	number_of_desired_resources 	20
scalar Network700.node690 	query_homogenity_rate 	33.333333333333
scalar Network700.node690 	qrecord_time 	11510.350062262
scalar Network700.node690 	discovery_resolution_rate 	0
scalar Network700.node680 	rate_of_requesters 	1
scalar Network700.node680 	number_of_resources 	38500
scalar Network700.node680 	time_period 	2
scalar Network700.node680 	number_of_messages 	2
scalar Network700.node680 	discovery_latency 	5712
scalar Network700.node680 	number_of_desired_resources 	20
scalar Network700.node680 	query_homogenity_rate 	33.333333333333
scalar Network700.node680 	qrecord_time 	11552.823113857
scalar Network700.node680 	discovery_resolution_rate 	0
scalar Network700.node370 	rate_of_requesters 	1
scalar Network700.node370 	number_of_resources 	38500
scalar Network700.node370 	time_period 	2
scalar Network700.node370 	number_of_messages 	2
scalar Network700.node370 	discovery_latency 	5748
scalar Network700.node370 	number_of_desired_resources 	20
scalar Network700.node370 	query_homogenity_rate 	33.333333333333
scalar Network700.node370 	qrecord_time 	11582.830093483
scalar Network700.node370 	discovery_resolution_rate 	0
scalar Network700.node510 	rate_of_requesters 	1
scalar Network700.node510 	number_of_resources 	38500
scalar Network700.node510 	time_period 	3
scalar Network700.node510 	number_of_messages 	2
scalar Network700.node510 	discovery_latency 	5748
scalar Network700.node510 	number_of_desired_resources 	20
scalar Network700.node510 	query_homogenity_rate 	33.333333333333
scalar Network700.node510 	qrecord_time 	11597.591679133
scalar Network700.node510 	discovery_resolution_rate 	0
scalar Network700.node470 	rate_of_requesters 	1
scalar Network700.node470 	number_of_resources 	38500
scalar Network700.node470 	time_period 	4
scalar Network700.node470 	number_of_messages 	2
scalar Network700.node470 	discovery_latency 	5772
scalar Network700.node470 	number_of_desired_resources 	20
scalar Network700.node470 	query_homogenity_rate 	33.333333333333
scalar Network700.node470 	qrecord_time 	11641.704997966
scalar Network700.node470 	discovery_resolution_rate 	0
scalar Network700.node500 	rate_of_requesters 	1
scalar Network700.node500 	number_of_resources 	38500
scalar Network700.node500 	time_period 	2
scalar Network700.node500 	number_of_messages 	2
scalar Network700.node500 	discovery_latency 	5808
scalar Network700.node500 	number_of_desired_resources 	20
scalar Network700.node500 	query_homogenity_rate 	33.333333333333
scalar Network700.node500 	qrecord_time 	11642.071404684
scalar Network700.node500 	discovery_resolution_rate 	0
scalar Network700.node360 	rate_of_requesters 	1
scalar Network700.node360 	number_of_resources 	38500
scalar Network700.node360 	time_period 	2
scalar Network700.node360 	number_of_messages 	2
scalar Network700.node360 	discovery_latency 	5976
scalar Network700.node360 	number_of_desired_resources 	20
scalar Network700.node360 	query_homogenity_rate 	33.333333333333
scalar Network700.node360 	qrecord_time 	11642.517596462
scalar Network700.node360 	discovery_resolution_rate 	0
scalar Network700.node600 	rate_of_requesters 	1
scalar Network700.node600 	number_of_resources 	38500
scalar Network700.node600 	time_period 	2
scalar Network700.node600 	number_of_messages 	2
scalar Network700.node600 	discovery_latency 	5760
scalar Network700.node600 	number_of_desired_resources 	20
scalar Network700.node600 	query_homogenity_rate 	33.333333333333
scalar Network700.node600 	qrecord_time 	11656.490564987
scalar Network700.node600 	discovery_resolution_rate 	0
scalar Network700.node300 	rate_of_requesters 	1
scalar Network700.node300 	number_of_resources 	38500
scalar Network700.node300 	time_period 	2
scalar Network700.node300 	number_of_messages 	2
scalar Network700.node300 	discovery_latency 	5736
scalar Network700.node300 	number_of_desired_resources 	20
scalar Network700.node300 	query_homogenity_rate 	33.333333333333
scalar Network700.node300 	qrecord_time 	11739.556436597
scalar Network700.node300 	discovery_resolution_rate 	0
scalar Network700.node560 	rate_of_requesters 	1
scalar Network700.node560 	number_of_resources 	38500
scalar Network700.node560 	time_period 	2
scalar Network700.node560 	number_of_messages 	2
scalar Network700.node560 	discovery_latency 	5844
scalar Network700.node560 	number_of_desired_resources 	20
scalar Network700.node560 	query_homogenity_rate 	33.333333333333
scalar Network700.node560 	qrecord_time 	11790.44997011
scalar Network700.node560 	discovery_resolution_rate 	0
scalar Network700.node580 	rate_of_requesters 	1
scalar Network700.node580 	number_of_resources 	38500
scalar Network700.node580 	time_period 	3
scalar Network700.node580 	number_of_messages 	2
scalar Network700.node580 	discovery_latency 	5868
scalar Network700.node580 	number_of_desired_resources 	20
scalar Network700.node580 	query_homogenity_rate 	33.333333333333
scalar Network700.node580 	qrecord_time 	11861.250829254
scalar Network700.node580 	discovery_resolution_rate 	0
scalar Network700.node530 	rate_of_requesters 	1
scalar Network700.node530 	number_of_resources 	38500
scalar Network700.node530 	time_period 	2
scalar Network700.node530 	number_of_messages 	2
scalar Network700.node530 	discovery_latency 	5568
scalar Network700.node530 	number_of_desired_resources 	20
scalar Network700.node530 	query_homogenity_rate 	33.333333333333
scalar Network700.node530 	qrecord_time 	11864.295589886
scalar Network700.node530 	discovery_resolution_rate 	0
scalar Network700.node250 	rate_of_requesters 	1
scalar Network700.node250 	number_of_resources 	38500
scalar Network700.node250 	time_period 	2
scalar Network700.node250 	number_of_messages 	0
scalar Network700.node250 	discovery_latency 	5784
scalar Network700.node250 	number_of_desired_resources 	20
scalar Network700.node250 	query_homogenity_rate 	33.333333333333
scalar Network700.node250 	qrecord_time 	11930.429155183
scalar Network700.node250 	discovery_resolution_rate 	0
scalar Network700.node290 	rate_of_requesters 	1
scalar Network700.node290 	number_of_resources 	38500
scalar Network700.node290 	time_period 	2
scalar Network700.node290 	number_of_messages 	2
scalar Network700.node290 	discovery_latency 	5748
scalar Network700.node290 	number_of_desired_resources 	20
scalar Network700.node290 	query_homogenity_rate 	33.333333333333
scalar Network700.node290 	qrecord_time 	11993.794170625
scalar Network700.node290 	discovery_resolution_rate 	0
scalar Network700.node60 	rate_of_requesters 	1
scalar Network700.node60 	number_of_resources 	38500
scalar Network700.node60 	time_period 	2
scalar Network700.node60 	number_of_messages 	2
scalar Network700.node60 	discovery_latency 	5868
scalar Network700.node60 	number_of_desired_resources 	20
scalar Network700.node60 	query_homogenity_rate 	33.333333333333
scalar Network700.node60 	qrecord_time 	12033.463161411
scalar Network700.node60 	discovery_resolution_rate 	0
scalar Network700.node310 	rate_of_requesters 	1
scalar Network700.node310 	number_of_resources 	38500
scalar Network700.node310 	time_period 	2
scalar Network700.node310 	number_of_messages 	2
scalar Network700.node310 	discovery_latency 	5844
scalar Network700.node310 	number_of_desired_resources 	20
scalar Network700.node310 	query_homogenity_rate 	33.333333333333
scalar Network700.node310 	qrecord_time 	12046.107442585
scalar Network700.node310 	discovery_resolution_rate 	0
scalar Network700.node390 	rate_of_requesters 	1
scalar Network700.node390 	number_of_resources 	38500
scalar Network700.node390 	time_period 	2
scalar Network700.node390 	number_of_messages 	2
scalar Network700.node390 	discovery_latency 	5760
scalar Network700.node390 	number_of_desired_resources 	20
scalar Network700.node390 	query_homogenity_rate 	33.333333333333
scalar Network700.node390 	qrecord_time 	12048.230366151
scalar Network700.node390 	discovery_resolution_rate 	0
scalar Network700.node670 	rate_of_requesters 	1
scalar Network700.node670 	number_of_resources 	38500
scalar Network700.node670 	time_period 	2
scalar Network700.node670 	number_of_messages 	2
scalar Network700.node670 	discovery_latency 	5736
scalar Network700.node670 	number_of_desired_resources 	20
scalar Network700.node670 	query_homogenity_rate 	33.333333333333
scalar Network700.node670 	qrecord_time 	12117.604572473
scalar Network700.node670 	discovery_resolution_rate 	0
scalar Network700.node0 	rate_of_requesters 	1
scalar Network700.node0 	number_of_resources 	38500
scalar Network700.node0 	time_period 	2
scalar Network700.node0 	number_of_messages 	0
scalar Network700.node0 	discovery_latency 	5724
scalar Network700.node0 	number_of_desired_resources 	20
scalar Network700.node0 	query_homogenity_rate 	33.333333333333
scalar Network700.node0 	qrecord_time 	12211.449823633
scalar Network700.node0 	discovery_resolution_rate 	0
scalar Network700.node310 	rate_of_requesters 	1
scalar Network700.node310 	number_of_resources 	38500
scalar Network700.node310 	time_period 	3
scalar Network700.node310 	number_of_messages 	2
scalar Network700.node310 	discovery_latency 	5832
scalar Network700.node310 	number_of_desired_resources 	20
scalar Network700.node310 	query_homogenity_rate 	33.333333333333
scalar Network700.node310 	qrecord_time 	12215.664544742
scalar Network700.node310 	discovery_resolution_rate 	0
scalar Network700.node180 	rate_of_requesters 	1
scalar Network700.node180 	number_of_resources 	38500
scalar Network700.node180 	time_period 	4
scalar Network700.node180 	number_of_messages 	18
scalar Network700.node180 	discovery_latency 	4368
scalar Network700.node180 	number_of_desired_resources 	20
scalar Network700.node180 	query_homogenity_rate 	33.333333333333
scalar Network700.node180 	qrecord_time 	12311.749418512
scalar Network700.node180 	discovery_resolution_rate 	33.333333333333
scalar Network700.node390 	rate_of_requesters 	1
scalar Network700.node390 	number_of_resources 	38500
scalar Network700.node390 	time_period 	3
scalar Network700.node390 	number_of_messages 	172
scalar Network700.node390 	discovery_latency 	5796
scalar Network700.node390 	number_of_desired_resources 	20
scalar Network700.node390 	query_homogenity_rate 	33.333333333333
scalar Network700.node390 	qrecord_time 	12377.054411868
scalar Network700.node390 	discovery_resolution_rate 	16.666666666667
scalar Network700.node590 	rate_of_requesters 	1
scalar Network700.node590 	number_of_resources 	38500
scalar Network700.node590 	time_period 	2
scalar Network700.node590 	number_of_messages 	25
scalar Network700.node590 	discovery_latency 	5796
scalar Network700.node590 	number_of_desired_resources 	20
scalar Network700.node590 	query_homogenity_rate 	33.333333333333
scalar Network700.node590 	qrecord_time 	12406.359975468
scalar Network700.node590 	discovery_resolution_rate 	33.333333333333
scalar Network700.node340 	rate_of_requesters 	1
scalar Network700.node340 	number_of_resources 	38500
scalar Network700.node340 	time_period 	3
scalar Network700.node340 	number_of_messages 	165
scalar Network700.node340 	discovery_latency 	4020
scalar Network700.node340 	number_of_desired_resources 	20
scalar Network700.node340 	query_homogenity_rate 	33.333333333333
scalar Network700.node340 	qrecord_time 	12464.776025428
scalar Network700.node340 	discovery_resolution_rate 	66.666666666667
scalar Network700.node300 	rate_of_requesters 	1
scalar Network700.node300 	number_of_resources 	38500
scalar Network700.node300 	time_period 	3
scalar Network700.node300 	number_of_messages 	2
scalar Network700.node300 	discovery_latency 	5796
scalar Network700.node300 	number_of_desired_resources 	20
scalar Network700.node300 	query_homogenity_rate 	33.333333333333
scalar Network700.node300 	qrecord_time 	12472.140690949
scalar Network700.node300 	discovery_resolution_rate 	0
scalar Network700.node690 	rate_of_requesters 	1
scalar Network700.node690 	number_of_resources 	38500
scalar Network700.node690 	time_period 	3
scalar Network700.node690 	number_of_messages 	2
scalar Network700.node690 	discovery_latency 	5928
scalar Network700.node690 	number_of_desired_resources 	20
scalar Network700.node690 	query_homogenity_rate 	33.333333333333
scalar Network700.node690 	qrecord_time 	12516.756601502
scalar Network700.node690 	discovery_resolution_rate 	0
scalar Network700.node390 	rate_of_requesters 	1
scalar Network700.node390 	number_of_resources 	38500
scalar Network700.node390 	time_period 	4
scalar Network700.node390 	number_of_messages 	2
scalar Network700.node390 	discovery_latency 	5820
scalar Network700.node390 	number_of_desired_resources 	20
scalar Network700.node390 	query_homogenity_rate 	33.333333333333
scalar Network700.node390 	qrecord_time 	12519.741110892
scalar Network700.node390 	discovery_resolution_rate 	0
scalar Network700.node10 	rate_of_requesters 	1
scalar Network700.node10 	number_of_resources 	38500
scalar Network700.node10 	time_period 	2
scalar Network700.node10 	number_of_messages 	0
scalar Network700.node10 	discovery_latency 	5652
scalar Network700.node10 	number_of_desired_resources 	20
scalar Network700.node10 	query_homogenity_rate 	33.333333333333
scalar Network700.node10 	qrecord_time 	12572.349546197
scalar Network700.node10 	discovery_resolution_rate 	0
scalar Network700.node360 	rate_of_requesters 	1
scalar Network700.node360 	number_of_resources 	38500
scalar Network700.node360 	time_period 	3
scalar Network700.node360 	number_of_messages 	2
scalar Network700.node360 	discovery_latency 	5604
scalar Network700.node360 	number_of_desired_resources 	20
scalar Network700.node360 	query_homogenity_rate 	33.333333333333
scalar Network700.node360 	qrecord_time 	12585.15596149
scalar Network700.node360 	discovery_resolution_rate 	0
scalar Network700.node340 	rate_of_requesters 	1
scalar Network700.node340 	number_of_resources 	38500
scalar Network700.node340 	time_period 	2
scalar Network700.node340 	number_of_messages 	2
scalar Network700.node340 	discovery_latency 	5976
scalar Network700.node340 	number_of_desired_resources 	20
scalar Network700.node340 	query_homogenity_rate 	33.333333333333
scalar Network700.node340 	qrecord_time 	12606.588519839
scalar Network700.node340 	discovery_resolution_rate 	0
scalar Network700.node460 	rate_of_requesters 	1
scalar Network700.node460 	number_of_resources 	38500
scalar Network700.node460 	time_period 	2
scalar Network700.node460 	number_of_messages 	2
scalar Network700.node460 	discovery_latency 	5676
scalar Network700.node460 	number_of_desired_resources 	20
scalar Network700.node460 	query_homogenity_rate 	33.333333333333
scalar Network700.node460 	qrecord_time 	12774.086393005
scalar Network700.node460 	discovery_resolution_rate 	0
scalar Network700.node0 	rate_of_requesters 	1
scalar Network700.node0 	number_of_resources 	38500
scalar Network700.node0 	time_period 	3
scalar Network700.node0 	number_of_messages 	0
scalar Network700.node0 	discovery_latency 	5748
scalar Network700.node0 	number_of_desired_resources 	20
scalar Network700.node0 	query_homogenity_rate 	33.333333333333
scalar Network700.node0 	qrecord_time 	12856.693638651
scalar Network700.node0 	discovery_resolution_rate 	0
scalar Network700.node130 	rate_of_requesters 	1
scalar Network700.node130 	number_of_resources 	38500
scalar Network700.node130 	time_period 	2
scalar Network700.node130 	number_of_messages 	160
scalar Network700.node130 	discovery_latency 	4464
scalar Network700.node130 	number_of_desired_resources 	20
scalar Network700.node130 	query_homogenity_rate 	33.333333333333
scalar Network700.node130 	qrecord_time 	12914.963490284
scalar Network700.node130 	discovery_resolution_rate 	33.333333333333
scalar Network700.node120 	rate_of_requesters 	1
scalar Network700.node120 	number_of_resources 	38500
scalar Network700.node120 	time_period 	2
scalar Network700.node120 	number_of_messages 	108
scalar Network700.node120 	discovery_latency 	4488
scalar Network700.node120 	number_of_desired_resources 	20
scalar Network700.node120 	query_homogenity_rate 	33.333333333333
scalar Network700.node120 	qrecord_time 	13061.770613631
scalar Network700.node120 	discovery_resolution_rate 	33.333333333333
scalar Network700.node510 	rate_of_requesters 	1
scalar Network700.node510 	number_of_resources 	38500
scalar Network700.node510 	time_period 	4
scalar Network700.node510 	number_of_messages 	71
scalar Network700.node510 	discovery_latency 	4488
scalar Network700.node510 	number_of_desired_resources 	20
scalar Network700.node510 	query_homogenity_rate 	33.333333333333
scalar Network700.node510 	qrecord_time 	13082.02082369
scalar Network700.node510 	discovery_resolution_rate 	33.333333333333
scalar Network700.node500 	rate_of_requesters 	1
scalar Network700.node500 	number_of_resources 	38500
scalar Network700.node500 	time_period 	3
scalar Network700.node500 	number_of_messages 	2
scalar Network700.node500 	discovery_latency 	5592
scalar Network700.node500 	number_of_desired_resources 	20
scalar Network700.node500 	query_homogenity_rate 	33.333333333333
scalar Network700.node500 	qrecord_time 	13209.287276819
scalar Network700.node500 	discovery_resolution_rate 	0
scalar Network700.node390 	rate_of_requesters 	1
scalar Network700.node390 	number_of_resources 	38500
scalar Network700.node390 	time_period 	5
scalar Network700.node390 	number_of_messages 	2
scalar Network700.node390 	discovery_latency 	5892
scalar Network700.node390 	number_of_desired_resources 	20
scalar Network700.node390 	query_homogenity_rate 	33.333333333333
scalar Network700.node390 	qrecord_time 	13242.911394632
scalar Network700.node390 	discovery_resolution_rate 	0
scalar Network700.node20 	rate_of_requesters 	1
scalar Network700.node20 	number_of_resources 	38500
scalar Network700.node20 	time_period 	4
scalar Network700.node20 	number_of_messages 	36
scalar Network700.node20 	discovery_latency 	5628
scalar Network700.node20 	number_of_desired_resources 	20
scalar Network700.node20 	query_homogenity_rate 	33.333333333333
scalar Network700.node20 	qrecord_time 	13254.478338391
scalar Network700.node20 	discovery_resolution_rate 	33.333333333333
scalar Network700.node310 	rate_of_requesters 	1
scalar Network700.node310 	number_of_resources 	38500
scalar Network700.node310 	time_period 	4
scalar Network700.node310 	number_of_messages 	2
scalar Network700.node310 	discovery_latency 	5916
scalar Network700.node310 	number_of_desired_resources 	20
scalar Network700.node310 	query_homogenity_rate 	33.333333333333
scalar Network700.node310 	qrecord_time 	13296.78745893
scalar Network700.node310 	discovery_resolution_rate 	0
scalar Network700.node500 	rate_of_requesters 	1
scalar Network700.node500 	number_of_resources 	38500
scalar Network700.node500 	time_period 	4
scalar Network700.node500 	number_of_messages 	2
scalar Network700.node500 	discovery_latency 	5688
scalar Network700.node500 	number_of_desired_resources 	20
scalar Network700.node500 	query_homogenity_rate 	33.333333333333
scalar Network700.node500 	qrecord_time 	13335.030888941
scalar Network700.node500 	discovery_resolution_rate 	0
scalar Network700.node610 	rate_of_requesters 	1
scalar Network700.node610 	number_of_resources 	38500
scalar Network700.node610 	time_period 	2
scalar Network700.node610 	number_of_messages 	2
scalar Network700.node610 	discovery_latency 	5856
scalar Network700.node610 	number_of_desired_resources 	20
scalar Network700.node610 	query_homogenity_rate 	33.333333333333
scalar Network700.node610 	qrecord_time 	13357.785279655
scalar Network700.node610 	discovery_resolution_rate 	0
scalar Network700.node180 	rate_of_requesters 	1
scalar Network700.node180 	number_of_resources 	38500
scalar Network700.node180 	time_period 	3
scalar Network700.node180 	number_of_messages 	2
scalar Network700.node180 	discovery_latency 	5808
scalar Network700.node180 	number_of_desired_resources 	20
scalar Network700.node180 	query_homogenity_rate 	33.333333333333
scalar Network700.node180 	qrecord_time 	13416.653458446
scalar Network700.node180 	discovery_resolution_rate 	0
scalar Network700.node400 	rate_of_requesters 	1
scalar Network700.node400 	number_of_resources 	38500
scalar Network700.node400 	time_period 	3
scalar Network700.node400 	number_of_messages 	2
scalar Network700.node400 	discovery_latency 	5808
scalar Network700.node400 	number_of_desired_resources 	20
scalar Network700.node400 	query_homogenity_rate 	33.333333333333
scalar Network700.node400 	qrecord_time 	13438.079938085
scalar Network700.node400 	discovery_resolution_rate 	0
scalar Network700.node590 	rate_of_requesters 	1
scalar Network700.node590 	number_of_resources 	38500
scalar Network700.node590 	time_period 	3
scalar Network700.node590 	number_of_messages 	2
scalar Network700.node590 	discovery_latency 	5784
scalar Network700.node590 	number_of_desired_resources 	20
scalar Network700.node590 	query_homogenity_rate 	33.333333333333
scalar Network700.node590 	qrecord_time 	13450.932282851
scalar Network700.node590 	discovery_resolution_rate 	0
scalar Network700.node570 	rate_of_requesters 	1
scalar Network700.node570 	number_of_resources 	38500
scalar Network700.node570 	time_period 	2
scalar Network700.node570 	number_of_messages 	2
scalar Network700.node570 	discovery_latency 	5844
scalar Network700.node570 	number_of_desired_resources 	20
scalar Network700.node570 	query_homogenity_rate 	33.333333333333
scalar Network700.node570 	qrecord_time 	13552.471845628
scalar Network700.node570 	discovery_resolution_rate 	0
scalar Network700.node0 	rate_of_requesters 	1
scalar Network700.node0 	number_of_resources 	38500
scalar Network700.node0 	time_period 	4
scalar Network700.node0 	number_of_messages 	0
scalar Network700.node0 	discovery_latency 	5760
scalar Network700.node0 	number_of_desired_resources 	20
scalar Network700.node0 	query_homogenity_rate 	33.333333333333
scalar Network700.node0 	qrecord_time 	13600.820564733
scalar Network700.node0 	discovery_resolution_rate 	0
scalar Network700.node240 	rate_of_requesters 	1
scalar Network700.node240 	number_of_resources 	38500
scalar Network700.node240 	time_period 	2
scalar Network700.node240 	number_of_messages 	66
scalar Network700.node240 	discovery_latency 	4152
scalar Network700.node240 	number_of_desired_resources 	20
scalar Network700.node240 	query_homogenity_rate 	33.333333333333
scalar Network700.node240 	qrecord_time 	13705.164821685
scalar Network700.node240 	discovery_resolution_rate 	66.666666666667
scalar Network700.node370 	rate_of_requesters 	1
scalar Network700.node370 	number_of_resources 	38500
scalar Network700.node370 	time_period 	3
scalar Network700.node370 	number_of_messages 	2
scalar Network700.node370 	discovery_latency 	5604
scalar Network700.node370 	number_of_desired_resources 	20
scalar Network700.node370 	query_homogenity_rate 	33.333333333333
scalar Network700.node370 	qrecord_time 	13778.306671214
scalar Network700.node370 	discovery_resolution_rate 	0
scalar Network700.node590 	rate_of_requesters 	1
scalar Network700.node590 	number_of_resources 	38500
scalar Network700.node590 	time_period 	4
scalar Network700.node590 	number_of_messages 	34
scalar Network700.node590 	discovery_latency 	4440
scalar Network700.node590 	number_of_desired_resources 	20
scalar Network700.node590 	query_homogenity_rate 	33.333333333333
scalar Network700.node590 	qrecord_time 	13796.754520568
scalar Network700.node590 	discovery_resolution_rate 	33.333333333333
scalar Network700.node630 	rate_of_requesters 	1
scalar Network700.node630 	number_of_resources 	38500
scalar Network700.node630 	time_period 	2
scalar Network700.node630 	number_of_messages 	15
scalar Network700.node630 	discovery_latency 	4488
scalar Network700.node630 	number_of_desired_resources 	20
scalar Network700.node630 	query_homogenity_rate 	33.333333333333
scalar Network700.node630 	qrecord_time 	13822.149216072
scalar Network700.node630 	discovery_resolution_rate 	33.333333333333
scalar Network700.node470 	rate_of_requesters 	1
scalar Network700.node470 	number_of_resources 	38500
scalar Network700.node470 	time_period 	5
scalar Network700.node470 	number_of_messages 	14
scalar Network700.node470 	discovery_latency 	5856
scalar Network700.node470 	number_of_desired_resources 	20
scalar Network700.node470 	query_homogenity_rate 	33.333333333333
scalar Network700.node470 	qrecord_time 	13907.673129436
scalar Network700.node470 	discovery_resolution_rate 	33.333333333333
scalar Network700.node410 	rate_of_requesters 	1
scalar Network700.node410 	number_of_resources 	38500
scalar Network700.node410 	time_period 	2
scalar Network700.node410 	number_of_messages 	2
scalar Network700.node410 	discovery_latency 	5808
scalar Network700.node410 	number_of_desired_resources 	20
scalar Network700.node410 	query_homogenity_rate 	33.333333333333
scalar Network700.node410 	qrecord_time 	13999.915921609
scalar Network700.node410 	discovery_resolution_rate 	0
scalar Network700.node220 	rate_of_requesters 	1
scalar Network700.node220 	number_of_resources 	38500
scalar Network700.node220 	time_period 	2
scalar Network700.node220 	number_of_messages 	23
scalar Network700.node220 	discovery_latency 	4620
scalar Network700.node220 	number_of_desired_resources 	20
scalar Network700.node220 	query_homogenity_rate 	33.333333333333
scalar Network700.node220 	qrecord_time 	14020.920711878
scalar Network700.node220 	discovery_resolution_rate 	33.333333333333
scalar Network700.node640 	rate_of_requesters 	1
scalar Network700.node640 	number_of_resources 	38500
scalar Network700.node640 	time_period 	2
scalar Network700.node640 	number_of_messages 	2
scalar Network700.node640 	discovery_latency 	5736
scalar Network700.node640 	number_of_desired_resources 	20
scalar Network700.node640 	query_homogenity_rate 	33.333333333333
scalar Network700.node640 	qrecord_time 	14094.912825661
scalar Network700.node640 	discovery_resolution_rate 	0
scalar Network700.node690 	rate_of_requesters 	1
scalar Network700.node690 	number_of_resources 	38500
scalar Network700.node690 	time_period 	4
scalar Network700.node690 	number_of_messages 	2
scalar Network700.node690 	discovery_latency 	5940
scalar Network700.node690 	number_of_desired_resources 	20
scalar Network700.node690 	query_homogenity_rate 	33.333333333333
scalar Network700.node690 	qrecord_time 	14145.270239089
scalar Network700.node690 	discovery_resolution_rate 	0
scalar Network700.node610 	rate_of_requesters 	1
scalar Network700.node610 	number_of_resources 	38500
scalar Network700.node610 	time_period 	3
scalar Network700.node610 	number_of_messages 	2
scalar Network700.node610 	discovery_latency 	5760
scalar Network700.node610 	number_of_desired_resources 	20
scalar Network700.node610 	query_homogenity_rate 	33.333333333333
scalar Network700.node610 	qrecord_time 	14148.116643981
scalar Network700.node610 	discovery_resolution_rate 	0
scalar Network700.node210 	rate_of_requesters 	1
scalar Network700.node210 	number_of_resources 	38500
scalar Network700.node210 	time_period 	2
scalar Network700.node210 	number_of_messages 	2
scalar Network700.node210 	discovery_latency 	5820
scalar Network700.node210 	number_of_desired_resources 	20
scalar Network700.node210 	query_homogenity_rate 	33.333333333333
scalar Network700.node210 	qrecord_time 	14178.353940714
scalar Network700.node210 	discovery_resolution_rate 	0
scalar Network700.node370 	rate_of_requesters 	1
scalar Network700.node370 	number_of_resources 	38500
scalar Network700.node370 	time_period 	4
scalar Network700.node370 	number_of_messages 	87
scalar Network700.node370 	discovery_latency 	4308
scalar Network700.node370 	number_of_desired_resources 	20
scalar Network700.node370 	query_homogenity_rate 	33.333333333333
scalar Network700.node370 	qrecord_time 	14330.537249305
scalar Network700.node370 	discovery_resolution_rate 	33.333333333333
scalar Network700.node410 	rate_of_requesters 	1
scalar Network700.node410 	number_of_resources 	38500
scalar Network700.node410 	time_period 	3
scalar Network700.node410 	number_of_messages 	59
scalar Network700.node410 	discovery_latency 	4560
scalar Network700.node410 	number_of_desired_resources 	20
scalar Network700.node410 	query_homogenity_rate 	33.333333333333
scalar Network700.node410 	qrecord_time 	14334.146840207
scalar Network700.node410 	discovery_resolution_rate 	33.333333333333
scalar Network700.node580 	rate_of_requesters 	1
scalar Network700.node580 	number_of_resources 	38500
scalar Network700.node580 	time_period 	4
scalar Network700.node580 	number_of_messages 	2
scalar Network700.node580 	discovery_latency 	5868
scalar Network700.node580 	number_of_desired_resources 	20
scalar Network700.node580 	query_homogenity_rate 	33.333333333333
scalar Network700.node580 	qrecord_time 	14373.31891932
scalar Network700.node580 	discovery_resolution_rate 	0
scalar Network700.node430 	rate_of_requesters 	1
scalar Network700.node430 	number_of_resources 	38500
scalar Network700.node430 	time_period 	2
scalar Network700.node430 	number_of_messages 	40
scalar Network700.node430 	discovery_latency 	4392
scalar Network700.node430 	number_of_desired_resources 	20
scalar Network700.node430 	query_homogenity_rate 	33.333333333333
scalar Network700.node430 	qrecord_time 	14432.455953105
scalar Network700.node430 	discovery_resolution_rate 	33.333333333333
scalar Network700.node200 	rate_of_requesters 	1
scalar Network700.node200 	number_of_resources 	38500
scalar Network700.node200 	time_period 	3
scalar Network700.node200 	number_of_messages 	2
scalar Network700.node200 	discovery_latency 	5640
scalar Network700.node200 	number_of_desired_resources 	20
scalar Network700.node200 	query_homogenity_rate 	33.333333333333
scalar Network700.node200 	qrecord_time 	14465.334831391
scalar Network700.node200 	discovery_resolution_rate 	0
scalar Network700.node190 	rate_of_requesters 	1
scalar Network700.node190 	number_of_resources 	38500
scalar Network700.node190 	time_period 	2
scalar Network700.node190 	number_of_messages 	29
scalar Network700.node190 	discovery_latency 	5748
scalar Network700.node190 	number_of_desired_resources 	20
scalar Network700.node190 	query_homogenity_rate 	33.333333333333
scalar Network700.node190 	qrecord_time 	14679.050999577
scalar Network700.node190 	discovery_resolution_rate 	33.333333333333
scalar Network700.node290 	rate_of_requesters 	1
scalar Network700.node290 	number_of_resources 	38500
scalar Network700.node290 	time_period 	3
scalar Network700.node290 	number_of_messages 	2
scalar Network700.node290 	discovery_latency 	5868
scalar Network700.node290 	number_of_desired_resources 	20
scalar Network700.node290 	query_homogenity_rate 	33.333333333333
scalar Network700.node290 	qrecord_time 	14735.285589591
scalar Network700.node290 	discovery_resolution_rate 	0
scalar Network700.node490 	rate_of_requesters 	1
scalar Network700.node490 	number_of_resources 	38500
scalar Network700.node490 	time_period 	2
scalar Network700.node490 	number_of_messages 	2
scalar Network700.node490 	discovery_latency 	5844
scalar Network700.node490 	number_of_desired_resources 	20
scalar Network700.node490 	query_homogenity_rate 	33.333333333333
scalar Network700.node490 	qrecord_time 	14829.87100289
scalar Network700.node490 	discovery_resolution_rate 	0
scalar Network700.node540 	rate_of_requesters 	1
scalar Network700.node540 	number_of_resources 	38500
scalar Network700.node540 	time_period 	2
scalar Network700.node540 	number_of_messages 	2
scalar Network700.node540 	discovery_latency 	5844
scalar Network700.node540 	number_of_desired_resources 	20
scalar Network700.node540 	query_homogenity_rate 	33.333333333333
scalar Network700.node540 	qrecord_time 	14869.501231092
scalar Network700.node540 	discovery_resolution_rate 	0
scalar Network700.node420 	rate_of_requesters 	1
scalar Network700.node420 	number_of_resources 	38500
scalar Network700.node420 	time_period 	3
scalar Network700.node420 	number_of_messages 	42
scalar Network700.node420 	discovery_latency 	5772
scalar Network700.node420 	number_of_desired_resources 	20
scalar Network700.node420 	query_homogenity_rate 	33.333333333333
scalar Network700.node420 	qrecord_time 	14927.250827003
scalar Network700.node420 	discovery_resolution_rate 	33.333333333333
scalar Network700.node20 	rate_of_requesters 	1
scalar Network700.node20 	number_of_resources 	38500
scalar Network700.node20 	time_period 	5
scalar Network700.node20 	number_of_messages 	49
scalar Network700.node20 	discovery_latency 	4464
scalar Network700.node20 	number_of_desired_resources 	20
scalar Network700.node20 	query_homogenity_rate 	33.333333333333
scalar Network700.node20 	qrecord_time 	14936.51746177
scalar Network700.node20 	discovery_resolution_rate 	66.666666666667
scalar Network700.node520 	rate_of_requesters 	1
scalar Network700.node520 	number_of_resources 	38500
scalar Network700.node520 	time_period 	3
scalar Network700.node520 	number_of_messages 	41
scalar Network700.node520 	discovery_latency 	4536
scalar Network700.node520 	number_of_desired_resources 	20
scalar Network700.node520 	query_homogenity_rate 	33.333333333333
scalar Network700.node520 	qrecord_time 	15008.105720277
scalar Network700.node520 	discovery_resolution_rate 	33.333333333333
scalar Network700.node20 	rate_of_requesters 	1
scalar Network700.node20 	number_of_resources 	38500
scalar Network700.node20 	time_period 	6
scalar Network700.node20 	number_of_messages 	140
scalar Network700.node20 	discovery_latency 	4284
scalar Network700.node20 	number_of_desired_resources 	20
scalar Network700.node20 	query_homogenity_rate 	33.333333333333
scalar Network700.node20 	qrecord_time 	15024.805979879
scalar Network700.node20 	discovery_resolution_rate 	33.333333333333
scalar Network700.node270 	rate_of_requesters 	1
scalar Network700.node270 	number_of_resources 	38500
scalar Network700.node270 	time_period 	3
scalar Network700.node270 	number_of_messages 	21
scalar Network700.node270 	discovery_latency 	4560
scalar Network700.node270 	number_of_desired_resources 	20
scalar Network700.node270 	query_homogenity_rate 	33.333333333333
scalar Network700.node270 	qrecord_time 	15037.923562791
scalar Network700.node270 	discovery_resolution_rate 	33.333333333333
scalar Network700.node420 	rate_of_requesters 	1
scalar Network700.node420 	number_of_resources 	38500
scalar Network700.node420 	time_period 	4
scalar Network700.node420 	number_of_messages 	19
scalar Network700.node420 	discovery_latency 	4308
scalar Network700.node420 	number_of_desired_resources 	20
scalar Network700.node420 	query_homogenity_rate 	33.333333333333
scalar Network700.node420 	qrecord_time 	15182.10596113
scalar Network700.node420 	discovery_resolution_rate 	33.333333333333
scalar Network700.node130 	rate_of_requesters 	1
scalar Network700.node130 	number_of_resources 	38500
scalar Network700.node130 	time_period 	3
scalar Network700.node130 	number_of_messages 	18
scalar Network700.node130 	discovery_latency 	5940
scalar Network700.node130 	number_of_desired_resources 	20
scalar Network700.node130 	query_homogenity_rate 	33.333333333333
scalar Network700.node130 	qrecord_time 	15183.732186172
scalar Network700.node130 	discovery_resolution_rate 	33.333333333333
scalar Network700.node110 	rate_of_requesters 	1
scalar Network700.node110 	number_of_resources 	38500
scalar Network700.node110 	time_period 	2
scalar Network700.node110 	number_of_messages 	36
scalar Network700.node110 	discovery_latency 	4404
scalar Network700.node110 	number_of_desired_resources 	20
scalar Network700.node110 	query_homogenity_rate 	33.333333333333
scalar Network700.node110 	qrecord_time 	15232.250035379
scalar Network700.node110 	discovery_resolution_rate 	33.333333333333
scalar Network700.node190 	rate_of_requesters 	1
scalar Network700.node190 	number_of_resources 	38500
scalar Network700.node190 	time_period 	3
scalar Network700.node190 	number_of_messages 	171
scalar Network700.node190 	discovery_latency 	4536
scalar Network700.node190 	number_of_desired_resources 	20
scalar Network700.node190 	query_homogenity_rate 	33.333333333333
scalar Network700.node190 	qrecord_time 	15243.918493379
scalar Network700.node190 	discovery_resolution_rate 	33.333333333333
scalar Network700.node310 	rate_of_requesters 	1
scalar Network700.node310 	number_of_resources 	38500
scalar Network700.node310 	time_period 	5
scalar Network700.node310 	number_of_messages 	50
scalar Network700.node310 	discovery_latency 	5544
scalar Network700.node310 	number_of_desired_resources 	20
scalar Network700.node310 	query_homogenity_rate 	33.333333333333
scalar Network700.node310 	qrecord_time 	15259.911971819
scalar Network700.node310 	discovery_resolution_rate 	33.333333333333
scalar Network700.node230 	rate_of_requesters 	1
scalar Network700.node230 	number_of_resources 	38500
scalar Network700.node230 	time_period 	2
scalar Network700.node230 	number_of_messages 	2
scalar Network700.node230 	discovery_latency 	5820
scalar Network700.node230 	number_of_desired_resources 	20
scalar Network700.node230 	query_homogenity_rate 	33.333333333333
scalar Network700.node230 	qrecord_time 	15329.02561162
scalar Network700.node230 	discovery_resolution_rate 	0
scalar Network700.node150 	rate_of_requesters 	1
scalar Network700.node150 	number_of_resources 	38500
scalar Network700.node150 	time_period 	2
scalar Network700.node150 	number_of_messages 	2
scalar Network700.node150 	discovery_latency 	5856
scalar Network700.node150 	number_of_desired_resources 	20
scalar Network700.node150 	query_homogenity_rate 	33.333333333333
scalar Network700.node150 	qrecord_time 	15405.86463863
scalar Network700.node150 	discovery_resolution_rate 	0
scalar Network700.node60 	rate_of_requesters 	1
scalar Network700.node60 	number_of_resources 	38500
scalar Network700.node60 	time_period 	3
scalar Network700.node60 	number_of_messages 	19
scalar Network700.node60 	discovery_latency 	5772
scalar Network700.node60 	number_of_desired_resources 	20
scalar Network700.node60 	query_homogenity_rate 	33.333333333333
[...]
scalar Network700.node90 	time_period 	10
scalar Network700.node90 	number_of_messages 	123
scalar Network700.node90 	discovery_latency 	3936
scalar Network700.node90 	number_of_desired_resources 	20
scalar Network700.node90 	query_homogenity_rate 	33.333333333333
scalar Network700.node90 	qrecord_time 	50348.714332746
scalar Network700.node90 	discovery_resolution_rate 	66.666666666667
scalar Network700.node550 	rate_of_requesters 	1
scalar Network700.node550 	number_of_resources 	38500
scalar Network700.node550 	time_period 	10
scalar Network700.node550 	number_of_messages 	27
scalar Network700.node550 	discovery_latency 	4092
scalar Network700.node550 	number_of_desired_resources 	20
scalar Network700.node550 	query_homogenity_rate 	33.333333333333
scalar Network700.node550 	qrecord_time 	50404.667073839
scalar Network700.node550 	discovery_resolution_rate 	66.666666666667
scalar Network700.node200 	rate_of_requesters 	1
scalar Network700.node200 	number_of_resources 	38500
scalar Network700.node200 	time_period 	9
scalar Network700.node200 	number_of_messages 	5
scalar Network700.node200 	discovery_latency 	4380
scalar Network700.node200 	number_of_desired_resources 	20
scalar Network700.node200 	query_homogenity_rate 	33.333333333333
scalar Network700.node200 	qrecord_time 	50498.873376877
scalar Network700.node200 	discovery_resolution_rate 	33.333333333333
scalar Network700.node10 	rate_of_requesters 	1
scalar Network700.node10 	number_of_resources 	38500
scalar Network700.node10 	time_period 	10
scalar Network700.node10 	number_of_messages 	13
scalar Network700.node10 	discovery_latency 	4584
scalar Network700.node10 	number_of_desired_resources 	20
scalar Network700.node10 	query_homogenity_rate 	33.333333333333
scalar Network700.node10 	qrecord_time 	50756.432982417
scalar Network700.node10 	discovery_resolution_rate 	33.333333333333
scalar Network700.node540 	rate_of_requesters 	1
scalar Network700.node540 	number_of_resources 	38500
scalar Network700.node540 	time_period 	7
scalar Network700.node540 	number_of_messages 	42
scalar Network700.node540 	discovery_latency 	4104
scalar Network700.node540 	number_of_desired_resources 	20
scalar Network700.node540 	query_homogenity_rate 	33.333333333333
scalar Network700.node540 	qrecord_time 	51143.621339485
scalar Network700.node540 	discovery_resolution_rate 	66.666666666667
scalar Network700.node240 	rate_of_requesters 	1
scalar Network700.node240 	number_of_resources 	38500
scalar Network700.node240 	time_period 	10
scalar Network700.node240 	number_of_messages 	49
scalar Network700.node240 	discovery_latency 	636
scalar Network700.node240 	number_of_desired_resources 	20
scalar Network700.node240 	query_homogenity_rate 	33.333333333333
scalar Network700.node240 	qrecord_time 	51170.815982836
scalar Network700.node240 	discovery_resolution_rate 	100
scalar Network700.node240 	rate_of_requesters 	1
scalar Network700.node240 	number_of_resources 	38500
scalar Network700.node240 	time_period 	9
scalar Network700.node240 	number_of_messages 	24
scalar Network700.node240 	discovery_latency 	4080
scalar Network700.node240 	number_of_desired_resources 	20
scalar Network700.node240 	query_homogenity_rate 	33.333333333333
scalar Network700.node240 	qrecord_time 	51800.777769898
scalar Network700.node240 	discovery_resolution_rate 	66.666666666667
scalar Network700.node290 	rate_of_requesters 	1
scalar Network700.node290 	number_of_resources 	38500
scalar Network700.node290 	time_period 	4
scalar Network700.node290 	number_of_messages 	211
scalar Network700.node290 	discovery_latency 	4356
scalar Network700.node290 	number_of_desired_resources 	20
scalar Network700.node290 	query_homogenity_rate 	33.333333333333
scalar Network700.node290 	qrecord_time 	51944.236274623
scalar Network700.node290 	discovery_resolution_rate 	50
scalar Network700.node250 	rate_of_requesters 	1
scalar Network700.node250 	number_of_resources 	38500
scalar Network700.node250 	time_period 	7
scalar Network700.node250 	number_of_messages 	6
scalar Network700.node250 	discovery_latency 	4284
scalar Network700.node250 	number_of_desired_resources 	20
scalar Network700.node250 	query_homogenity_rate 	33.333333333333
scalar Network700.node250 	qrecord_time 	51961.522780193
scalar Network700.node250 	discovery_resolution_rate 	33.333333333333
scalar Network700.node150 	rate_of_requesters 	1
scalar Network700.node150 	number_of_resources 	38500
scalar Network700.node150 	time_period 	10
scalar Network700.node150 	number_of_messages 	202
scalar Network700.node150 	discovery_latency 	4464
scalar Network700.node150 	number_of_desired_resources 	20
scalar Network700.node150 	query_homogenity_rate 	33.333333333333
scalar Network700.node150 	qrecord_time 	51971.962842368
scalar Network700.node150 	discovery_resolution_rate 	50
scalar Network700.node660 	rate_of_requesters 	1
scalar Network700.node660 	number_of_resources 	38500
scalar Network700.node660 	time_period 	9
scalar Network700.node660 	number_of_messages 	7
scalar Network700.node660 	discovery_latency 	4464
scalar Network700.node660 	number_of_desired_resources 	20
scalar Network700.node660 	query_homogenity_rate 	33.333333333333
scalar Network700.node660 	qrecord_time 	51997.414289795
scalar Network700.node660 	discovery_resolution_rate 	33.333333333333
scalar Network700.node540 	rate_of_requesters 	1
scalar Network700.node540 	number_of_resources 	38500
scalar Network700.node540 	time_period 	8
scalar Network700.node540 	number_of_messages 	13
scalar Network700.node540 	discovery_latency 	4500
scalar Network700.node540 	number_of_desired_resources 	20
scalar Network700.node540 	query_homogenity_rate 	33.333333333333
scalar Network700.node540 	qrecord_time 	52012.401014112
scalar Network700.node540 	discovery_resolution_rate 	33.333333333333
scalar Network700.node540 	rate_of_requesters 	1
scalar Network700.node540 	number_of_resources 	38500
scalar Network700.node540 	time_period 	9
scalar Network700.node540 	number_of_messages 	37
scalar Network700.node540 	discovery_latency 	408
scalar Network700.node540 	number_of_desired_resources 	20
scalar Network700.node540 	query_homogenity_rate 	33.333333333333
scalar Network700.node540 	qrecord_time 	52162.685516201
scalar Network700.node540 	discovery_resolution_rate 	100
scalar Network700.node260 	rate_of_requesters 	1
scalar Network700.node260 	number_of_resources 	38500
scalar Network700.node260 	time_period 	10
scalar Network700.node260 	number_of_messages 	36
scalar Network700.node260 	discovery_latency 	432
scalar Network700.node260 	number_of_desired_resources 	20
scalar Network700.node260 	query_homogenity_rate 	33.333333333333
scalar Network700.node260 	qrecord_time 	52619.16764113
scalar Network700.node260 	discovery_resolution_rate 	100
scalar Network700.node170 	rate_of_requesters 	1
scalar Network700.node170 	number_of_resources 	38500
scalar Network700.node170 	time_period 	10
scalar Network700.node170 	number_of_messages 	47
scalar Network700.node170 	discovery_latency 	4152
scalar Network700.node170 	number_of_desired_resources 	20
scalar Network700.node170 	query_homogenity_rate 	33.333333333333
scalar Network700.node170 	qrecord_time 	53267.678452851
scalar Network700.node170 	discovery_resolution_rate 	66.666666666667
scalar Network700.node450 	rate_of_requesters 	1
scalar Network700.node450 	number_of_resources 	38500
scalar Network700.node450 	time_period 	8
scalar Network700.node450 	number_of_messages 	200
scalar Network700.node450 	discovery_latency 	4356
scalar Network700.node450 	number_of_desired_resources 	20
scalar Network700.node450 	query_homogenity_rate 	33.333333333333
scalar Network700.node450 	qrecord_time 	53859.632636648
scalar Network700.node450 	discovery_resolution_rate 	50
scalar Network700.node320 	rate_of_requesters 	1
scalar Network700.node320 	number_of_resources 	38500
scalar Network700.node320 	time_period 	9
scalar Network700.node320 	number_of_messages 	36
scalar Network700.node320 	discovery_latency 	4044
scalar Network700.node320 	number_of_desired_resources 	20
scalar Network700.node320 	query_homogenity_rate 	33.333333333333
scalar Network700.node320 	qrecord_time 	53906.479836084
scalar Network700.node320 	discovery_resolution_rate 	66.666666666667
scalar Network700.node540 	rate_of_requesters 	1
scalar Network700.node540 	number_of_resources 	38500
scalar Network700.node540 	time_period 	10
scalar Network700.node540 	number_of_messages 	39
scalar Network700.node540 	discovery_latency 	480
scalar Network700.node540 	number_of_desired_resources 	20
scalar Network700.node540 	query_homogenity_rate 	33.333333333333
scalar Network700.node540 	qrecord_time 	54027.008518439
scalar Network700.node540 	discovery_resolution_rate 	100
scalar Network700.node600 	rate_of_requesters 	1
scalar Network700.node600 	number_of_resources 	38500
scalar Network700.node600 	time_period 	10
scalar Network700.node600 	number_of_messages 	204
scalar Network700.node600 	discovery_latency 	4488
scalar Network700.node600 	number_of_desired_resources 	20
scalar Network700.node600 	query_homogenity_rate 	33.333333333333
scalar Network700.node600 	qrecord_time 	54047.479573717
scalar Network700.node600 	discovery_resolution_rate 	50
scalar Network700.node80 	rate_of_requesters 	1
scalar Network700.node80 	number_of_resources 	38500
scalar Network700.node80 	time_period 	8
scalar Network700.node80 	number_of_messages 	59
scalar Network700.node80 	discovery_latency 	1080
scalar Network700.node80 	number_of_desired_resources 	20
scalar Network700.node80 	query_homogenity_rate 	33.333333333333
scalar Network700.node80 	qrecord_time 	54167.595765187
scalar Network700.node80 	discovery_resolution_rate 	100
scalar Network700.node100 	rate_of_requesters 	1
scalar Network700.node100 	number_of_resources 	38500
scalar Network700.node100 	time_period 	5
scalar Network700.node100 	number_of_messages 	24
scalar Network700.node100 	discovery_latency 	180
scalar Network700.node100 	number_of_desired_resources 	20
scalar Network700.node100 	query_homogenity_rate 	33.333333333333
scalar Network700.node100 	qrecord_time 	54357.735486088
scalar Network700.node100 	discovery_resolution_rate 	100
scalar Network700.node80 	rate_of_requesters 	1
scalar Network700.node80 	number_of_resources 	38500
scalar Network700.node80 	time_period 	9
scalar Network700.node80 	number_of_messages 	32
scalar Network700.node80 	discovery_latency 	300
scalar Network700.node80 	number_of_desired_resources 	20
scalar Network700.node80 	query_homogenity_rate 	33.333333333333
scalar Network700.node80 	qrecord_time 	54813.435429831
scalar Network700.node80 	discovery_resolution_rate 	100
scalar Network700.node660 	rate_of_requesters 	1
scalar Network700.node660 	number_of_resources 	38500
scalar Network700.node660 	time_period 	10
scalar Network700.node660 	number_of_messages 	27
scalar Network700.node660 	discovery_latency 	264
scalar Network700.node660 	number_of_desired_resources 	20
scalar Network700.node660 	query_homogenity_rate 	33.333333333333
scalar Network700.node660 	qrecord_time 	54989.015553855
scalar Network700.node660 	discovery_resolution_rate 	100
scalar Network700.node80 	rate_of_requesters 	1
scalar Network700.node80 	number_of_resources 	38500
scalar Network700.node80 	time_period 	10
scalar Network700.node80 	number_of_messages 	32
scalar Network700.node80 	discovery_latency 	300
scalar Network700.node80 	number_of_desired_resources 	20
scalar Network700.node80 	query_homogenity_rate 	33.333333333333
scalar Network700.node80 	qrecord_time 	58540.374302541
scalar Network700.node80 	discovery_resolution_rate 	100
scalar Network700.node100 	rate_of_requesters 	1
scalar Network700.node100 	number_of_resources 	38500
scalar Network700.node100 	time_period 	6
scalar Network700.node100 	number_of_messages 	29
scalar Network700.node100 	discovery_latency 	384
scalar Network700.node100 	number_of_desired_resources 	20
scalar Network700.node100 	query_homogenity_rate 	33.333333333333
scalar Network700.node100 	qrecord_time 	59214.787116696
scalar Network700.node100 	discovery_resolution_rate 	100
scalar Network700.node100 	rate_of_requesters 	1
scalar Network700.node100 	number_of_resources 	38500
scalar Network700.node100 	time_period 	7
scalar Network700.node100 	number_of_messages 	28
scalar Network700.node100 	discovery_latency 	372
scalar Network700.node100 	number_of_desired_resources 	20
scalar Network700.node100 	query_homogenity_rate 	33.333333333333
scalar Network700.node100 	qrecord_time 	63332.151262779
scalar Network700.node100 	discovery_resolution_rate 	100
scalar Network700.node100 	rate_of_requesters 	1
scalar Network700.node100 	number_of_resources 	38500
scalar Network700.node100 	time_period 	8
scalar Network700.node100 	number_of_messages 	23
scalar Network700.node100 	discovery_latency 	168
scalar Network700.node100 	number_of_desired_resources 	20
scalar Network700.node100 	query_homogenity_rate 	33.333333333333
scalar Network700.node100 	qrecord_time 	63750.248090086
scalar Network700.node100 	discovery_resolution_rate 	100
scalar Network700.node290 	rate_of_requesters 	1
scalar Network700.node290 	number_of_resources 	38500
scalar Network700.node290 	time_period 	5
scalar Network700.node290 	number_of_messages 	34
scalar Network700.node290 	discovery_latency 	408
scalar Network700.node290 	number_of_desired_resources 	20
scalar Network700.node290 	query_homogenity_rate 	33.333333333333
scalar Network700.node290 	qrecord_time 	64101.91185606
scalar Network700.node290 	discovery_resolution_rate 	100
scalar Network700.node320 	rate_of_requesters 	1
scalar Network700.node320 	number_of_resources 	38500
scalar Network700.node320 	time_period 	10
scalar Network700.node320 	number_of_messages 	20
scalar Network700.node320 	discovery_latency 	203.99999999999
scalar Network700.node320 	number_of_desired_resources 	20
scalar Network700.node320 	query_homogenity_rate 	33.333333333333
scalar Network700.node320 	qrecord_time 	64882.70627156
scalar Network700.node320 	discovery_resolution_rate 	100
scalar Network700.node100 	rate_of_requesters 	1
scalar Network700.node100 	number_of_resources 	38500
scalar Network700.node100 	time_period 	9
scalar Network700.node100 	number_of_messages 	22
scalar Network700.node100 	discovery_latency 	168.00000000001
scalar Network700.node100 	number_of_desired_resources 	20
scalar Network700.node100 	query_homogenity_rate 	33.333333333333
scalar Network700.node100 	qrecord_time 	66063.062968134
scalar Network700.node100 	discovery_resolution_rate 	100
scalar Network700.node250 	rate_of_requesters 	1
scalar Network700.node250 	number_of_resources 	38500
scalar Network700.node250 	time_period 	8
scalar Network700.node250 	number_of_messages 	23
scalar Network700.node250 	discovery_latency 	336
scalar Network700.node250 	number_of_desired_resources 	20
scalar Network700.node250 	query_homogenity_rate 	33.333333333333
scalar Network700.node250 	qrecord_time 	67761.559730685
scalar Network700.node250 	discovery_resolution_rate 	100
scalar Network700.node450 	rate_of_requesters 	1
scalar Network700.node450 	number_of_resources 	38500
scalar Network700.node450 	time_period 	9
scalar Network700.node450 	number_of_messages 	26
scalar Network700.node450 	discovery_latency 	215.99999999999
scalar Network700.node450 	number_of_desired_resources 	20
scalar Network700.node450 	query_homogenity_rate 	33.333333333333
scalar Network700.node450 	qrecord_time 	68986.642475399
scalar Network700.node450 	discovery_resolution_rate 	100
scalar Network700.node450 	rate_of_requesters 	1
scalar Network700.node450 	number_of_resources 	38500
scalar Network700.node450 	time_period 	10
scalar Network700.node450 	number_of_messages 	26
scalar Network700.node450 	discovery_latency 	216.00000000001
scalar Network700.node450 	number_of_desired_resources 	20
scalar Network700.node450 	query_homogenity_rate 	33.333333333333
scalar Network700.node450 	qrecord_time 	69790.110738354
scalar Network700.node450 	discovery_resolution_rate 	100
scalar Network700.node250 	rate_of_requesters 	1
scalar Network700.node250 	number_of_resources 	38500
scalar Network700.node250 	time_period 	9
scalar Network700.node250 	number_of_messages 	24
scalar Network700.node250 	discovery_latency 	348
scalar Network700.node250 	number_of_desired_resources 	20
scalar Network700.node250 	query_homogenity_rate 	33.333333333333
scalar Network700.node250 	qrecord_time 	70591.362705717
scalar Network700.node250 	discovery_resolution_rate 	100
scalar Network700.node290 	rate_of_requesters 	1
scalar Network700.node290 	number_of_resources 	38500
scalar Network700.node290 	time_period 	6
scalar Network700.node290 	number_of_messages 	32
scalar Network700.node290 	discovery_latency 	312
scalar Network700.node290 	number_of_desired_resources 	20
scalar Network700.node290 	query_homogenity_rate 	33.333333333333
scalar Network700.node290 	qrecord_time 	72154.104460504
scalar Network700.node290 	discovery_resolution_rate 	100
scalar Network700.node250 	rate_of_requesters 	1
scalar Network700.node250 	number_of_resources 	38500
scalar Network700.node250 	time_period 	10
scalar Network700.node250 	number_of_messages 	21
scalar Network700.node250 	discovery_latency 	384
scalar Network700.node250 	number_of_desired_resources 	20
scalar Network700.node250 	query_homogenity_rate 	33.333333333333
scalar Network700.node250 	qrecord_time 	73155.053433864
scalar Network700.node250 	discovery_resolution_rate 	100
scalar Network700.node290 	rate_of_requesters 	1
scalar Network700.node290 	number_of_resources 	38500
scalar Network700.node290 	time_period 	7
scalar Network700.node290 	number_of_messages 	36
scalar Network700.node290 	discovery_latency 	480
scalar Network700.node290 	number_of_desired_resources 	20
scalar Network700.node290 	query_homogenity_rate 	33.333333333333
scalar Network700.node290 	qrecord_time 	75003.193756797
scalar Network700.node290 	discovery_resolution_rate 	100
scalar Network700.node290 	rate_of_requesters 	1
scalar Network700.node290 	number_of_resources 	38500
scalar Network700.node290 	time_period 	8
scalar Network700.node290 	number_of_messages 	32
scalar Network700.node290 	discovery_latency 	312.00000000001
scalar Network700.node290 	number_of_desired_resources 	20
scalar Network700.node290 	query_homogenity_rate 	33.333333333333
scalar Network700.node290 	qrecord_time 	77568.527553717
scalar Network700.node290 	discovery_resolution_rate 	100
scalar Network700.node100 	rate_of_requesters 	1
scalar Network700.node100 	number_of_resources 	38500
scalar Network700.node100 	time_period 	10
scalar Network700.node100 	number_of_messages 	22
scalar Network700.node100 	discovery_latency 	168.00000000001
scalar Network700.node100 	number_of_desired_resources 	20
scalar Network700.node100 	query_homogenity_rate 	33.333333333333
scalar Network700.node100 	qrecord_time 	79272.081728591
scalar Network700.node100 	discovery_resolution_rate 	100
scalar Network700.node290 	rate_of_requesters 	1
scalar Network700.node290 	number_of_resources 	38500
scalar Network700.node290 	time_period 	9
scalar Network700.node290 	number_of_messages 	32
scalar Network700.node290 	discovery_latency 	312
scalar Network700.node290 	number_of_desired_resources 	20
scalar Network700.node290 	query_homogenity_rate 	33.333333333333
scalar Network700.node290 	qrecord_time 	83132.008246901
scalar Network700.node290 	discovery_resolution_rate 	100
scalar Network700.node290 	rate_of_requesters 	1
scalar Network700.node290 	number_of_resources 	38500
scalar Network700.node290 	time_period 	10
scalar Network700.node290 	number_of_messages 	32
scalar Network700.node290 	discovery_latency 	312
scalar Network700.node290 	number_of_desired_resources 	20
scalar Network700.node290 	query_homogenity_rate 	33.333333333333
scalar Network700.node290 	qrecord_time 	100362.06884204
scalar Network700.node290 	discovery_resolution_rate 	100
