version 2
run net700-2-20150717-00:31:30-10292
attr as 1
attr configname net700
attr datetime 20150717-00:31:30
attr dnor 20
attr experiment net700
attr inifile omnetpp.ini
attr iterationvars "$rhdrq=3, $dnor=20, $as=1"
attr iterationvars2 "$rhdrq=3, $dnor=20, $as=1, $repetition=2"
attr measurement "$rhdrq=3, $dnor=20, $as=1"
attr network Network700
attr processid 10292
attr repetition 2
attr replication #2
attr resultdir results
attr rhdrq 3
attr runnumber 2
attr seedset 2

scalar . 	as 	1
scalar . 	dnor 	20
scalar . 	rhdrq 	3
scalar Network700.node580 	rate_of_requesters 	1
scalar Network700.node580 	number_of_resources 	38500
scalar Network700.node580 	time_period 	1
scalar Network700.node580 	number_of_messages 	41
scalar Network700.node580 	discovery_latency 	4044
scalar Network700.node580 	number_of_desired_resources 	20
scalar Network700.node580 	query_homogenity_rate 	33.333333333333
scalar Network700.node580 	qrecord_time 	8758
scalar Network700.node580 	discovery_resolution_rate 	66.666666666667
scalar Network700.node80 	rate_of_requesters 	1
scalar Network700.node80 	number_of_resources 	38500
scalar Network700.node80 	time_period 	1
scalar Network700.node80 	number_of_messages 	24
scalar Network700.node80 	discovery_latency 	4056
scalar Network700.node80 	number_of_desired_resources 	20
scalar Network700.node80 	query_homogenity_rate 	33.333333333333
scalar Network700.node80 	qrecord_time 	8770
scalar Network700.node80 	discovery_resolution_rate 	66.666666666667
scalar Network700.node150 	rate_of_requesters 	1
scalar Network700.node150 	number_of_resources 	38500
scalar Network700.node150 	time_period 	1
scalar Network700.node150 	number_of_messages 	61
scalar Network700.node150 	discovery_latency 	4092
scalar Network700.node150 	number_of_desired_resources 	20
scalar Network700.node150 	query_homogenity_rate 	33.333333333333
scalar Network700.node150 	qrecord_time 	8788
scalar Network700.node150 	discovery_resolution_rate 	66.666666666667
scalar Network700.node170 	rate_of_requesters 	1
scalar Network700.node170 	number_of_resources 	38500
scalar Network700.node170 	time_period 	1
scalar Network700.node170 	number_of_messages 	30
scalar Network700.node170 	discovery_latency 	4068
scalar Network700.node170 	number_of_desired_resources 	20
scalar Network700.node170 	query_homogenity_rate 	33.333333333333
scalar Network700.node170 	qrecord_time 	8788
scalar Network700.node170 	discovery_resolution_rate 	66.666666666667
scalar Network700.node90 	rate_of_requesters 	1
scalar Network700.node90 	number_of_resources 	38500
scalar Network700.node90 	time_period 	1
scalar Network700.node90 	number_of_messages 	24
scalar Network700.node90 	discovery_latency 	4080
scalar Network700.node90 	number_of_desired_resources 	20
scalar Network700.node90 	query_homogenity_rate 	33.333333333333
scalar Network700.node90 	qrecord_time 	8794
scalar Network700.node90 	discovery_resolution_rate 	66.666666666667
scalar Network700.node380 	rate_of_requesters 	1
scalar Network700.node380 	number_of_resources 	38500
scalar Network700.node380 	time_period 	1
scalar Network700.node380 	number_of_messages 	74
scalar Network700.node380 	discovery_latency 	4092
scalar Network700.node380 	number_of_desired_resources 	20
scalar Network700.node380 	query_homogenity_rate 	33.333333333333
scalar Network700.node380 	qrecord_time 	8806
scalar Network700.node380 	discovery_resolution_rate 	66.666666666667
scalar Network700.node450 	rate_of_requesters 	1
scalar Network700.node450 	number_of_resources 	38500
scalar Network700.node450 	time_period 	1
scalar Network700.node450 	number_of_messages 	38
scalar Network700.node450 	discovery_latency 	4104
scalar Network700.node450 	number_of_desired_resources 	20
scalar Network700.node450 	query_homogenity_rate 	33.333333333333
scalar Network700.node450 	qrecord_time 	8842
scalar Network700.node450 	discovery_resolution_rate 	66.666666666667
scalar Network700.node30 	rate_of_requesters 	1
scalar Network700.node30 	number_of_resources 	38500
scalar Network700.node30 	time_period 	1
scalar Network700.node30 	number_of_messages 	17
scalar Network700.node30 	discovery_latency 	4200
scalar Network700.node30 	number_of_desired_resources 	20
scalar Network700.node30 	query_homogenity_rate 	33.333333333333
scalar Network700.node30 	qrecord_time 	8866
scalar Network700.node30 	discovery_resolution_rate 	66.666666666667
scalar Network700.node160 	rate_of_requesters 	1
scalar Network700.node160 	number_of_resources 	38500
scalar Network700.node160 	time_period 	1
scalar Network700.node160 	number_of_messages 	37
scalar Network700.node160 	discovery_latency 	4164
scalar Network700.node160 	number_of_desired_resources 	20
scalar Network700.node160 	query_homogenity_rate 	33.333333333333
scalar Network700.node160 	qrecord_time 	8872
scalar Network700.node160 	discovery_resolution_rate 	66.666666666667
scalar Network700.node400 	rate_of_requesters 	1
scalar Network700.node400 	number_of_resources 	38500
scalar Network700.node400 	time_period 	1
scalar Network700.node400 	number_of_messages 	49
scalar Network700.node400 	discovery_latency 	4104
scalar Network700.node400 	number_of_desired_resources 	20
scalar Network700.node400 	query_homogenity_rate 	33.333333333333
scalar Network700.node400 	qrecord_time 	8878
scalar Network700.node400 	discovery_resolution_rate 	66.666666666667
scalar Network700.node570 	rate_of_requesters 	1
scalar Network700.node570 	number_of_resources 	38500
scalar Network700.node570 	time_period 	1
scalar Network700.node570 	number_of_messages 	26
scalar Network700.node570 	discovery_latency 	4200
scalar Network700.node570 	number_of_desired_resources 	20
scalar Network700.node570 	query_homogenity_rate 	33.333333333333
scalar Network700.node570 	qrecord_time 	8884
scalar Network700.node570 	discovery_resolution_rate 	66.666666666667
scalar Network700.node180 	rate_of_requesters 	1
scalar Network700.node180 	number_of_resources 	38500
scalar Network700.node180 	time_period 	1
scalar Network700.node180 	number_of_messages 	16
scalar Network700.node180 	discovery_latency 	4212
scalar Network700.node180 	number_of_desired_resources 	20
scalar Network700.node180 	query_homogenity_rate 	33.333333333333
scalar Network700.node180 	qrecord_time 	8938
scalar Network700.node180 	discovery_resolution_rate 	66.666666666667
scalar Network700.node540 	rate_of_requesters 	1
scalar Network700.node540 	number_of_resources 	38500
scalar Network700.node540 	time_period 	1
scalar Network700.node540 	number_of_messages 	36
scalar Network700.node540 	discovery_latency 	4260
scalar Network700.node540 	number_of_desired_resources 	20
scalar Network700.node540 	query_homogenity_rate 	33.333333333333
scalar Network700.node540 	qrecord_time 	8950
scalar Network700.node540 	discovery_resolution_rate 	66.666666666667
scalar Network700.node410 	rate_of_requesters 	1
scalar Network700.node410 	number_of_resources 	38500
scalar Network700.node410 	time_period 	1
scalar Network700.node410 	number_of_messages 	38
scalar Network700.node410 	discovery_latency 	4236
scalar Network700.node410 	number_of_desired_resources 	20
scalar Network700.node410 	query_homogenity_rate 	33.333333333333
scalar Network700.node410 	qrecord_time 	8974
scalar Network700.node410 	discovery_resolution_rate 	66.666666666667
scalar Network700.node600 	rate_of_requesters 	1
scalar Network700.node600 	number_of_resources 	38500
scalar Network700.node600 	time_period 	1
scalar Network700.node600 	number_of_messages 	11
scalar Network700.node600 	discovery_latency 	4332
scalar Network700.node600 	number_of_desired_resources 	20
scalar Network700.node600 	query_homogenity_rate 	33.333333333333
scalar Network700.node600 	qrecord_time 	9028
scalar Network700.node600 	discovery_resolution_rate 	33.333333333333
scalar Network700.node270 	rate_of_requesters 	1
scalar Network700.node270 	number_of_resources 	38500
scalar Network700.node270 	time_period 	1
scalar Network700.node270 	number_of_messages 	27
scalar Network700.node270 	discovery_latency 	4356
scalar Network700.node270 	number_of_desired_resources 	20
scalar Network700.node270 	query_homogenity_rate 	33.333333333333
scalar Network700.node270 	qrecord_time 	9046
scalar Network700.node270 	discovery_resolution_rate 	66.666666666667
scalar Network700.node630 	rate_of_requesters 	1
scalar Network700.node630 	number_of_resources 	38500
scalar Network700.node630 	time_period 	1
scalar Network700.node630 	number_of_messages 	16
scalar Network700.node630 	discovery_latency 	4380
scalar Network700.node630 	number_of_desired_resources 	20
scalar Network700.node630 	query_homogenity_rate 	33.333333333333
scalar Network700.node630 	qrecord_time 	9052
scalar Network700.node630 	discovery_resolution_rate 	33.333333333333
scalar Network700.node330 	rate_of_requesters 	1
scalar Network700.node330 	number_of_resources 	38500
scalar Network700.node330 	time_period 	1
scalar Network700.node330 	number_of_messages 	5
scalar Network700.node330 	discovery_latency 	4356
scalar Network700.node330 	number_of_desired_resources 	20
scalar Network700.node330 	query_homogenity_rate 	33.333333333333
scalar Network700.node330 	qrecord_time 	9124
scalar Network700.node330 	discovery_resolution_rate 	33.333333333333
scalar Network700.node40 	rate_of_requesters 	1
scalar Network700.node40 	number_of_resources 	38500
scalar Network700.node40 	time_period 	1
scalar Network700.node40 	number_of_messages 	21
scalar Network700.node40 	discovery_latency 	4392
scalar Network700.node40 	number_of_desired_resources 	20
scalar Network700.node40 	query_homogenity_rate 	33.333333333333
scalar Network700.node40 	qrecord_time 	9130
scalar Network700.node40 	discovery_resolution_rate 	66.666666666667
scalar Network700.node50 	rate_of_requesters 	1
scalar Network700.node50 	number_of_resources 	38500
scalar Network700.node50 	time_period 	1
scalar Network700.node50 	number_of_messages 	11
scalar Network700.node50 	discovery_latency 	4404
scalar Network700.node50 	number_of_desired_resources 	20
scalar Network700.node50 	query_homogenity_rate 	33.333333333333
scalar Network700.node50 	qrecord_time 	9136
scalar Network700.node50 	discovery_resolution_rate 	66.666666666667
scalar Network700.node430 	rate_of_requesters 	1
scalar Network700.node430 	number_of_resources 	38500
scalar Network700.node430 	time_period 	1
scalar Network700.node430 	number_of_messages 	21
scalar Network700.node430 	discovery_latency 	4452
scalar Network700.node430 	number_of_desired_resources 	20
scalar Network700.node430 	query_homogenity_rate 	33.333333333333
scalar Network700.node430 	qrecord_time 	9136
scalar Network700.node430 	discovery_resolution_rate 	33.333333333333
scalar Network700.node110 	rate_of_requesters 	1
scalar Network700.node110 	number_of_resources 	38500
scalar Network700.node110 	time_period 	1
scalar Network700.node110 	number_of_messages 	5
scalar Network700.node110 	discovery_latency 	4404
scalar Network700.node110 	number_of_desired_resources 	20
scalar Network700.node110 	query_homogenity_rate 	33.333333333333
scalar Network700.node110 	qrecord_time 	9142
scalar Network700.node110 	discovery_resolution_rate 	33.333333333333
scalar Network700.node560 	rate_of_requesters 	1
scalar Network700.node560 	number_of_resources 	38500
scalar Network700.node560 	time_period 	1
scalar Network700.node560 	number_of_messages 	33
scalar Network700.node560 	discovery_latency 	4416
scalar Network700.node560 	number_of_desired_resources 	20
scalar Network700.node560 	query_homogenity_rate 	33.333333333333
scalar Network700.node560 	qrecord_time 	9148
scalar Network700.node560 	discovery_resolution_rate 	66.666666666667
scalar Network700.node290 	rate_of_requesters 	1
scalar Network700.node290 	number_of_resources 	38500
scalar Network700.node290 	time_period 	1
scalar Network700.node290 	number_of_messages 	5
scalar Network700.node290 	discovery_latency 	4428
scalar Network700.node290 	number_of_desired_resources 	20
scalar Network700.node290 	query_homogenity_rate 	33.333333333333
scalar Network700.node290 	qrecord_time 	9160
scalar Network700.node290 	discovery_resolution_rate 	33.333333333333
scalar Network700.node670 	rate_of_requesters 	1
scalar Network700.node670 	number_of_resources 	38500
scalar Network700.node670 	time_period 	1
scalar Network700.node670 	number_of_messages 	17
scalar Network700.node670 	discovery_latency 	4452
scalar Network700.node670 	number_of_desired_resources 	20
scalar Network700.node670 	query_homogenity_rate 	33.333333333333
scalar Network700.node670 	qrecord_time 	9160
scalar Network700.node670 	discovery_resolution_rate 	66.666666666667
scalar Network700.node280 	rate_of_requesters 	1
scalar Network700.node280 	number_of_resources 	38500
scalar Network700.node280 	time_period 	1
scalar Network700.node280 	number_of_messages 	8
scalar Network700.node280 	discovery_latency 	4488
scalar Network700.node280 	number_of_desired_resources 	20
scalar Network700.node280 	query_homogenity_rate 	33.333333333333
scalar Network700.node280 	qrecord_time 	9160
scalar Network700.node280 	discovery_resolution_rate 	33.333333333333
scalar Network700.node300 	rate_of_requesters 	1
scalar Network700.node300 	number_of_resources 	38500
scalar Network700.node300 	time_period 	1
scalar Network700.node300 	number_of_messages 	8
scalar Network700.node300 	discovery_latency 	4380
scalar Network700.node300 	number_of_desired_resources 	20
scalar Network700.node300 	query_homogenity_rate 	33.333333333333
scalar Network700.node300 	qrecord_time 	9172
scalar Network700.node300 	discovery_resolution_rate 	33.333333333333
scalar Network700.node470 	rate_of_requesters 	1
scalar Network700.node470 	number_of_resources 	38500
scalar Network700.node470 	time_period 	1
scalar Network700.node470 	number_of_messages 	57
scalar Network700.node470 	discovery_latency 	4464
scalar Network700.node470 	number_of_desired_resources 	20
scalar Network700.node470 	query_homogenity_rate 	33.333333333333
scalar Network700.node470 	qrecord_time 	9178
scalar Network700.node470 	discovery_resolution_rate 	33.333333333333
scalar Network700.node320 	rate_of_requesters 	1
scalar Network700.node320 	number_of_resources 	38500
scalar Network700.node320 	time_period 	1
scalar Network700.node320 	number_of_messages 	5
scalar Network700.node320 	discovery_latency 	4452
scalar Network700.node320 	number_of_desired_resources 	20
scalar Network700.node320 	query_homogenity_rate 	33.333333333333
scalar Network700.node320 	qrecord_time 	9220
scalar Network700.node320 	discovery_resolution_rate 	33.333333333333
scalar Network700.node10 	rate_of_requesters 	1
scalar Network700.node10 	number_of_resources 	38500
scalar Network700.node10 	time_period 	1
scalar Network700.node10 	number_of_messages 	6
scalar Network700.node10 	discovery_latency 	4524
scalar Network700.node10 	number_of_desired_resources 	20
scalar Network700.node10 	query_homogenity_rate 	33.333333333333
scalar Network700.node10 	qrecord_time 	9238
scalar Network700.node10 	discovery_resolution_rate 	33.333333333333
scalar Network700.node70 	rate_of_requesters 	1
scalar Network700.node70 	number_of_resources 	38500
scalar Network700.node70 	time_period 	1
scalar Network700.node70 	number_of_messages 	6
scalar Network700.node70 	discovery_latency 	4536
scalar Network700.node70 	number_of_desired_resources 	20
scalar Network700.node70 	query_homogenity_rate 	33.333333333333
scalar Network700.node70 	qrecord_time 	9268
scalar Network700.node70 	discovery_resolution_rate 	33.333333333333
scalar Network700.node680 	rate_of_requesters 	1
scalar Network700.node680 	number_of_resources 	38500
scalar Network700.node680 	time_period 	1
scalar Network700.node680 	number_of_messages 	16
scalar Network700.node680 	discovery_latency 	4584
scalar Network700.node680 	number_of_desired_resources 	20
scalar Network700.node680 	query_homogenity_rate 	33.333333333333
scalar Network700.node680 	qrecord_time 	9268
scalar Network700.node680 	discovery_resolution_rate 	33.333333333333
scalar Network700.node490 	rate_of_requesters 	1
scalar Network700.node490 	number_of_resources 	38500
scalar Network700.node490 	time_period 	1
scalar Network700.node490 	number_of_messages 	6
scalar Network700.node490 	discovery_latency 	4524
scalar Network700.node490 	number_of_desired_resources 	20
scalar Network700.node490 	query_homogenity_rate 	33.333333333333
scalar Network700.node490 	qrecord_time 	9274
scalar Network700.node490 	discovery_resolution_rate 	33.333333333333
scalar Network700.node200 	rate_of_requesters 	1
scalar Network700.node200 	number_of_resources 	38500
scalar Network700.node200 	time_period 	1
scalar Network700.node200 	number_of_messages 	15
scalar Network700.node200 	discovery_latency 	4548
scalar Network700.node200 	number_of_desired_resources 	20
scalar Network700.node200 	query_homogenity_rate 	33.333333333333
scalar Network700.node200 	qrecord_time 	9274
scalar Network700.node200 	discovery_resolution_rate 	66.666666666667
scalar Network700.node0 	rate_of_requesters 	1
scalar Network700.node0 	number_of_resources 	38500
scalar Network700.node0 	time_period 	1
scalar Network700.node0 	number_of_messages 	4
scalar Network700.node0 	discovery_latency 	4584
scalar Network700.node0 	number_of_desired_resources 	20
scalar Network700.node0 	query_homogenity_rate 	33.333333333333
scalar Network700.node0 	qrecord_time 	9304
scalar Network700.node0 	discovery_resolution_rate 	33.333333333333
scalar Network700.node360 	rate_of_requesters 	1
scalar Network700.node360 	number_of_resources 	38500
scalar Network700.node360 	time_period 	1
scalar Network700.node360 	number_of_messages 	22
scalar Network700.node360 	discovery_latency 	4608
scalar Network700.node360 	number_of_desired_resources 	20
scalar Network700.node360 	query_homogenity_rate 	33.333333333333
scalar Network700.node360 	qrecord_time 	9322
scalar Network700.node360 	discovery_resolution_rate 	33.333333333333
scalar Network700.node210 	rate_of_requesters 	1
scalar Network700.node210 	number_of_resources 	38500
scalar Network700.node210 	time_period 	1
scalar Network700.node210 	number_of_messages 	4
scalar Network700.node210 	discovery_latency 	4608
scalar Network700.node210 	number_of_desired_resources 	20
scalar Network700.node210 	query_homogenity_rate 	33.333333333333
scalar Network700.node210 	qrecord_time 	9322
scalar Network700.node210 	discovery_resolution_rate 	33.333333333333
scalar Network700.node20 	rate_of_requesters 	1
scalar Network700.node20 	number_of_resources 	38500
scalar Network700.node20 	time_period 	1
scalar Network700.node20 	number_of_messages 	12
scalar Network700.node20 	discovery_latency 	4584
scalar Network700.node20 	number_of_desired_resources 	20
scalar Network700.node20 	query_homogenity_rate 	33.333333333333
scalar Network700.node20 	qrecord_time 	9334
scalar Network700.node20 	discovery_resolution_rate 	33.333333333333
scalar Network700.node420 	rate_of_requesters 	1
scalar Network700.node420 	number_of_resources 	38500
scalar Network700.node420 	time_period 	1
scalar Network700.node420 	number_of_messages 	220
scalar Network700.node420 	discovery_latency 	4620
scalar Network700.node420 	number_of_desired_resources 	20
scalar Network700.node420 	query_homogenity_rate 	33.333333333333
scalar Network700.node420 	qrecord_time 	9334
scalar Network700.node420 	discovery_resolution_rate 	50
scalar Network700.node230 	rate_of_requesters 	1
scalar Network700.node230 	number_of_resources 	38500
scalar Network700.node230 	time_period 	1
scalar Network700.node230 	number_of_messages 	33
scalar Network700.node230 	discovery_latency 	4620
scalar Network700.node230 	number_of_desired_resources 	20
scalar Network700.node230 	query_homogenity_rate 	33.333333333333
scalar Network700.node230 	qrecord_time 	9340
scalar Network700.node230 	discovery_resolution_rate 	33.333333333333
scalar Network700.node340 	rate_of_requesters 	1
scalar Network700.node340 	number_of_resources 	38500
scalar Network700.node340 	time_period 	1
scalar Network700.node340 	number_of_messages 	9
scalar Network700.node340 	discovery_latency 	4596
scalar Network700.node340 	number_of_desired_resources 	20
scalar Network700.node340 	query_homogenity_rate 	33.333333333333
scalar Network700.node340 	qrecord_time 	9340
scalar Network700.node340 	discovery_resolution_rate 	33.333333333333
scalar Network700.node100 	rate_of_requesters 	1
scalar Network700.node100 	number_of_resources 	38500
scalar Network700.node100 	time_period 	1
scalar Network700.node100 	number_of_messages 	4
scalar Network700.node100 	discovery_latency 	4632
scalar Network700.node100 	number_of_desired_resources 	20
scalar Network700.node100 	query_homogenity_rate 	33.333333333333
scalar Network700.node100 	qrecord_time 	9346
scalar Network700.node100 	discovery_resolution_rate 	33.333333333333
scalar Network700.node250 	rate_of_requesters 	1
scalar Network700.node250 	number_of_resources 	38500
scalar Network700.node250 	time_period 	1
scalar Network700.node250 	number_of_messages 	6
scalar Network700.node250 	discovery_latency 	4596
scalar Network700.node250 	number_of_desired_resources 	20
scalar Network700.node250 	query_homogenity_rate 	33.333333333333
scalar Network700.node250 	qrecord_time 	9370
scalar Network700.node250 	discovery_resolution_rate 	33.333333333333
scalar Network700.node520 	rate_of_requesters 	1
scalar Network700.node520 	number_of_resources 	38500
scalar Network700.node520 	time_period 	1
scalar Network700.node520 	number_of_messages 	7
scalar Network700.node520 	discovery_latency 	4644
scalar Network700.node520 	number_of_desired_resources 	20
scalar Network700.node520 	query_homogenity_rate 	33.333333333333
scalar Network700.node520 	qrecord_time 	9370
scalar Network700.node520 	discovery_resolution_rate 	33.333333333333
scalar Network700.node620 	rate_of_requesters 	1
scalar Network700.node620 	number_of_resources 	38500
scalar Network700.node620 	time_period 	1
scalar Network700.node620 	number_of_messages 	7
scalar Network700.node620 	discovery_latency 	4692
scalar Network700.node620 	number_of_desired_resources 	20
scalar Network700.node620 	query_homogenity_rate 	33.333333333333
scalar Network700.node620 	qrecord_time 	9376
scalar Network700.node620 	discovery_resolution_rate 	33.333333333333
scalar Network700.node650 	rate_of_requesters 	1
scalar Network700.node650 	number_of_resources 	38500
scalar Network700.node650 	time_period 	1
scalar Network700.node650 	number_of_messages 	224
scalar Network700.node650 	discovery_latency 	4572
scalar Network700.node650 	number_of_desired_resources 	20
scalar Network700.node650 	query_homogenity_rate 	33.333333333333
scalar Network700.node650 	qrecord_time 	9382
scalar Network700.node650 	discovery_resolution_rate 	50
scalar Network700.node60 	rate_of_requesters 	1
scalar Network700.node60 	number_of_resources 	38500
scalar Network700.node60 	time_period 	1
scalar Network700.node60 	number_of_messages 	12
scalar Network700.node60 	discovery_latency 	4680
scalar Network700.node60 	number_of_desired_resources 	20
scalar Network700.node60 	query_homogenity_rate 	33.333333333333
scalar Network700.node60 	qrecord_time 	9418
scalar Network700.node60 	discovery_resolution_rate 	33.333333333333
scalar Network700.node460 	rate_of_requesters 	1
scalar Network700.node460 	number_of_resources 	38500
scalar Network700.node460 	time_period 	1
scalar Network700.node460 	number_of_messages 	5
scalar Network700.node460 	discovery_latency 	4728
scalar Network700.node460 	number_of_desired_resources 	20
scalar Network700.node460 	query_homogenity_rate 	33.333333333333
scalar Network700.node460 	qrecord_time 	9418
scalar Network700.node460 	discovery_resolution_rate 	33.333333333333
scalar Network700.node220 	rate_of_requesters 	1
scalar Network700.node220 	number_of_resources 	38500
scalar Network700.node220 	time_period 	1
scalar Network700.node220 	number_of_messages 	6
scalar Network700.node220 	discovery_latency 	4680
scalar Network700.node220 	number_of_desired_resources 	20
scalar Network700.node220 	query_homogenity_rate 	33.333333333333
scalar Network700.node220 	qrecord_time 	9430
scalar Network700.node220 	discovery_resolution_rate 	33.333333333333
scalar Network700.node310 	rate_of_requesters 	1
scalar Network700.node310 	number_of_resources 	38500
scalar Network700.node310 	time_period 	1
scalar Network700.node310 	number_of_messages 	2
scalar Network700.node310 	discovery_latency 	4710
scalar Network700.node310 	number_of_desired_resources 	20
scalar Network700.node310 	query_homogenity_rate 	33.333333333333
scalar Network700.node310 	qrecord_time 	9442
scalar Network700.node310 	discovery_resolution_rate 	0
scalar Network700.node480 	rate_of_requesters 	1
scalar Network700.node480 	number_of_resources 	38500
scalar Network700.node480 	time_period 	1
scalar Network700.node480 	number_of_messages 	25
scalar Network700.node480 	discovery_latency 	4692
scalar Network700.node480 	number_of_desired_resources 	20
scalar Network700.node480 	query_homogenity_rate 	33.333333333333
scalar Network700.node480 	qrecord_time 	9448
scalar Network700.node480 	discovery_resolution_rate 	33.333333333333
scalar Network700.node440 	rate_of_requesters 	1
scalar Network700.node440 	number_of_resources 	38500
scalar Network700.node440 	time_period 	1
scalar Network700.node440 	number_of_messages 	2
scalar Network700.node440 	discovery_latency 	4698
scalar Network700.node440 	number_of_desired_resources 	20
scalar Network700.node440 	query_homogenity_rate 	33.333333333333
scalar Network700.node440 	qrecord_time 	9490
scalar Network700.node440 	discovery_resolution_rate 	0
scalar Network700.node690 	rate_of_requesters 	1
scalar Network700.node690 	number_of_resources 	38500
scalar Network700.node690 	time_period 	1
scalar Network700.node690 	number_of_messages 	2
scalar Network700.node690 	discovery_latency 	4698
scalar Network700.node690 	number_of_desired_resources 	20
scalar Network700.node690 	query_homogenity_rate 	33.333333333333
scalar Network700.node690 	qrecord_time 	9496
scalar Network700.node690 	discovery_resolution_rate 	0
scalar Network700.node610 	rate_of_requesters 	1
scalar Network700.node610 	number_of_resources 	38500
scalar Network700.node610 	time_period 	1
scalar Network700.node610 	number_of_messages 	13
scalar Network700.node610 	discovery_latency 	4866
scalar Network700.node610 	number_of_desired_resources 	20
scalar Network700.node610 	query_homogenity_rate 	33.333333333333
scalar Network700.node610 	qrecord_time 	9508
scalar Network700.node610 	discovery_resolution_rate 	33.333333333333
scalar Network700.node660 	rate_of_requesters 	1
scalar Network700.node660 	number_of_resources 	38500
scalar Network700.node660 	time_period 	1
scalar Network700.node660 	number_of_messages 	2
scalar Network700.node660 	discovery_latency 	4806
scalar Network700.node660 	number_of_desired_resources 	20
scalar Network700.node660 	query_homogenity_rate 	33.333333333333
scalar Network700.node660 	qrecord_time 	9532
scalar Network700.node660 	discovery_resolution_rate 	0
scalar Network700.node190 	rate_of_requesters 	1
scalar Network700.node190 	number_of_resources 	38500
scalar Network700.node190 	time_period 	1
scalar Network700.node190 	number_of_messages 	2
scalar Network700.node190 	discovery_latency 	4830
scalar Network700.node190 	number_of_desired_resources 	20
scalar Network700.node190 	query_homogenity_rate 	33.333333333333
scalar Network700.node190 	qrecord_time 	9544
scalar Network700.node190 	discovery_resolution_rate 	0
scalar Network700.node530 	rate_of_requesters 	1
scalar Network700.node530 	number_of_resources 	38500
scalar Network700.node530 	time_period 	1
scalar Network700.node530 	number_of_messages 	2
scalar Network700.node530 	discovery_latency 	4818
scalar Network700.node530 	number_of_desired_resources 	20
scalar Network700.node530 	query_homogenity_rate 	33.333333333333
scalar Network700.node530 	qrecord_time 	9550
scalar Network700.node530 	discovery_resolution_rate 	0
scalar Network700.node500 	rate_of_requesters 	1
scalar Network700.node500 	number_of_resources 	38500
scalar Network700.node500 	time_period 	1
scalar Network700.node500 	number_of_messages 	241
scalar Network700.node500 	discovery_latency 	4830
scalar Network700.node500 	number_of_desired_resources 	20
scalar Network700.node500 	query_homogenity_rate 	33.333333333333
scalar Network700.node500 	qrecord_time 	9556
scalar Network700.node500 	discovery_resolution_rate 	16.666666666667
scalar Network700.node350 	rate_of_requesters 	1
scalar Network700.node350 	number_of_resources 	38500
scalar Network700.node350 	time_period 	1
scalar Network700.node350 	number_of_messages 	6
scalar Network700.node350 	discovery_latency 	4842
scalar Network700.node350 	number_of_desired_resources 	20
scalar Network700.node350 	query_homogenity_rate 	33.333333333333
scalar Network700.node350 	qrecord_time 	9568
scalar Network700.node350 	discovery_resolution_rate 	33.333333333333
scalar Network700.node550 	rate_of_requesters 	1
scalar Network700.node550 	number_of_resources 	38500
scalar Network700.node550 	time_period 	1
scalar Network700.node550 	number_of_messages 	6
scalar Network700.node550 	discovery_latency 	4842
scalar Network700.node550 	number_of_desired_resources 	20
scalar Network700.node550 	query_homogenity_rate 	33.333333333333
scalar Network700.node550 	qrecord_time 	9592
scalar Network700.node550 	discovery_resolution_rate 	33.333333333333
scalar Network700.node390 	rate_of_requesters 	1
scalar Network700.node390 	number_of_resources 	38500
scalar Network700.node390 	time_period 	1
scalar Network700.node390 	number_of_messages 	2
scalar Network700.node390 	discovery_latency 	4782
scalar Network700.node390 	number_of_desired_resources 	20
scalar Network700.node390 	query_homogenity_rate 	33.333333333333
scalar Network700.node390 	qrecord_time 	9592
scalar Network700.node390 	discovery_resolution_rate 	0
scalar Network700.node640 	rate_of_requesters 	1
scalar Network700.node640 	number_of_resources 	38500
scalar Network700.node640 	time_period 	1
scalar Network700.node640 	number_of_messages 	2
scalar Network700.node640 	discovery_latency 	4926
scalar Network700.node640 	number_of_desired_resources 	20
scalar Network700.node640 	query_homogenity_rate 	33.333333333333
scalar Network700.node640 	qrecord_time 	9610
scalar Network700.node640 	discovery_resolution_rate 	0
scalar Network700.node130 	rate_of_requesters 	1
scalar Network700.node130 	number_of_resources 	38500
scalar Network700.node130 	time_period 	1
scalar Network700.node130 	number_of_messages 	218
scalar Network700.node130 	discovery_latency 	4902
scalar Network700.node130 	number_of_desired_resources 	20
scalar Network700.node130 	query_homogenity_rate 	33.333333333333
scalar Network700.node130 	qrecord_time 	9634
scalar Network700.node130 	discovery_resolution_rate 	16.666666666667
scalar Network700.node510 	rate_of_requesters 	1
scalar Network700.node510 	number_of_resources 	38500
scalar Network700.node510 	time_period 	1
scalar Network700.node510 	number_of_messages 	7
scalar Network700.node510 	discovery_latency 	4938
scalar Network700.node510 	number_of_desired_resources 	20
scalar Network700.node510 	query_homogenity_rate 	33.333333333333
scalar Network700.node510 	qrecord_time 	9652
scalar Network700.node510 	discovery_resolution_rate 	33.333333333333
scalar Network700.node30 	rate_of_requesters 	1
scalar Network700.node30 	number_of_resources 	38500
scalar Network700.node30 	time_period 	2
scalar Network700.node30 	number_of_messages 	2
scalar Network700.node30 	discovery_latency 	4938
scalar Network700.node30 	number_of_desired_resources 	20
scalar Network700.node30 	query_homogenity_rate 	33.333333333333
scalar Network700.node30 	qrecord_time 	9699.722693174
scalar Network700.node30 	discovery_resolution_rate 	0
scalar Network700.node140 	rate_of_requesters 	1
scalar Network700.node140 	number_of_resources 	38500
scalar Network700.node140 	time_period 	1
scalar Network700.node140 	number_of_messages 	2
scalar Network700.node140 	discovery_latency 	4938
scalar Network700.node140 	number_of_desired_resources 	20
scalar Network700.node140 	query_homogenity_rate 	33.333333333333
scalar Network700.node140 	qrecord_time 	9706
scalar Network700.node140 	discovery_resolution_rate 	0
scalar Network700.node120 	rate_of_requesters 	1
scalar Network700.node120 	number_of_resources 	38500
scalar Network700.node120 	time_period 	2
scalar Network700.node120 	number_of_messages 	2
scalar Network700.node120 	discovery_latency 	4890
scalar Network700.node120 	number_of_desired_resources 	20
scalar Network700.node120 	query_homogenity_rate 	33.333333333333
scalar Network700.node120 	qrecord_time 	9725.861957223
scalar Network700.node120 	discovery_resolution_rate 	0
scalar Network700.node370 	rate_of_requesters 	1
scalar Network700.node370 	number_of_resources 	38500
scalar Network700.node370 	time_period 	1
scalar Network700.node370 	number_of_messages 	4
scalar Network700.node370 	discovery_latency 	4986
scalar Network700.node370 	number_of_desired_resources 	20
scalar Network700.node370 	query_homogenity_rate 	33.333333333333
scalar Network700.node370 	qrecord_time 	9730
scalar Network700.node370 	discovery_resolution_rate 	33.333333333333
scalar Network700.node240 	rate_of_requesters 	1
scalar Network700.node240 	number_of_resources 	38500
scalar Network700.node240 	time_period 	1
scalar Network700.node240 	number_of_messages 	2
scalar Network700.node240 	discovery_latency 	4986
scalar Network700.node240 	number_of_desired_resources 	20
scalar Network700.node240 	query_homogenity_rate 	33.333333333333
scalar Network700.node240 	qrecord_time 	9742
scalar Network700.node240 	discovery_resolution_rate 	0
scalar Network700.node590 	rate_of_requesters 	1
scalar Network700.node590 	number_of_resources 	38500
scalar Network700.node590 	time_period 	1
scalar Network700.node590 	number_of_messages 	2
scalar Network700.node590 	discovery_latency 	4974
scalar Network700.node590 	number_of_desired_resources 	20
scalar Network700.node590 	query_homogenity_rate 	33.333333333333
scalar Network700.node590 	qrecord_time 	9742
scalar Network700.node590 	discovery_resolution_rate 	0
scalar Network700.node260 	rate_of_requesters 	1
scalar Network700.node260 	number_of_resources 	38500
scalar Network700.node260 	time_period 	1
scalar Network700.node260 	number_of_messages 	2
scalar Network700.node260 	discovery_latency 	5010
scalar Network700.node260 	number_of_desired_resources 	20
scalar Network700.node260 	query_homogenity_rate 	33.333333333333
scalar Network700.node260 	qrecord_time 	9766
scalar Network700.node260 	discovery_resolution_rate 	0
scalar Network700.node120 	rate_of_requesters 	1
scalar Network700.node120 	number_of_resources 	38500
scalar Network700.node120 	time_period 	3
scalar Network700.node120 	number_of_messages 	2
scalar Network700.node120 	discovery_latency 	4854
scalar Network700.node120 	number_of_desired_resources 	20
scalar Network700.node120 	query_homogenity_rate 	33.333333333333
scalar Network700.node120 	qrecord_time 	9826.683311704
scalar Network700.node120 	discovery_resolution_rate 	0
scalar Network700.node300 	rate_of_requesters 	1
scalar Network700.node300 	number_of_resources 	38500
scalar Network700.node300 	time_period 	2
scalar Network700.node300 	number_of_messages 	2
scalar Network700.node300 	discovery_latency 	4878
scalar Network700.node300 	number_of_desired_resources 	20
scalar Network700.node300 	query_homogenity_rate 	33.333333333333
scalar Network700.node300 	qrecord_time 	9861.07758974
scalar Network700.node300 	discovery_resolution_rate 	0
scalar Network700.node100 	rate_of_requesters 	1
scalar Network700.node100 	number_of_resources 	38500
scalar Network700.node100 	time_period 	2
scalar Network700.node100 	number_of_messages 	2
scalar Network700.node100 	discovery_latency 	4830
scalar Network700.node100 	number_of_desired_resources 	20
scalar Network700.node100 	query_homogenity_rate 	33.333333333333
scalar Network700.node100 	qrecord_time 	9905.998640125
scalar Network700.node100 	discovery_resolution_rate 	0
scalar Network700.node210 	rate_of_requesters 	1
scalar Network700.node210 	number_of_resources 	38500
scalar Network700.node210 	time_period 	2
scalar Network700.node210 	number_of_messages 	2
scalar Network700.node210 	discovery_latency 	4914
scalar Network700.node210 	number_of_desired_resources 	20
scalar Network700.node210 	query_homogenity_rate 	33.333333333333
scalar Network700.node210 	qrecord_time 	9923.353243291
scalar Network700.node210 	discovery_resolution_rate 	0
scalar Network700.node670 	rate_of_requesters 	1
scalar Network700.node670 	number_of_resources 	38500
scalar Network700.node670 	time_period 	2
scalar Network700.node670 	number_of_messages 	2
scalar Network700.node670 	discovery_latency 	4902
scalar Network700.node670 	number_of_desired_resources 	20
scalar Network700.node670 	query_homogenity_rate 	33.333333333333
scalar Network700.node670 	qrecord_time 	9934.81721065
scalar Network700.node670 	discovery_resolution_rate 	0
scalar Network700.node270 	rate_of_requesters 	1
scalar Network700.node270 	number_of_resources 	38500
scalar Network700.node270 	time_period 	2
scalar Network700.node270 	number_of_messages 	2
scalar Network700.node270 	discovery_latency 	4818
scalar Network700.node270 	number_of_desired_resources 	20
scalar Network700.node270 	query_homogenity_rate 	33.333333333333
scalar Network700.node270 	qrecord_time 	10020.983161368
scalar Network700.node270 	discovery_resolution_rate 	0
scalar Network700.node120 	rate_of_requesters 	1
scalar Network700.node120 	number_of_resources 	38500
scalar Network700.node120 	time_period 	1
scalar Network700.node120 	number_of_messages 	8
scalar Network700.node120 	discovery_latency 	5298
scalar Network700.node120 	number_of_desired_resources 	20
scalar Network700.node120 	query_homogenity_rate 	33.333333333333
scalar Network700.node120 	qrecord_time 	10030
scalar Network700.node120 	discovery_resolution_rate 	33.333333333333
scalar Network700.node320 	rate_of_requesters 	1
scalar Network700.node320 	number_of_resources 	38500
scalar Network700.node320 	time_period 	2
scalar Network700.node320 	number_of_messages 	2
scalar Network700.node320 	discovery_latency 	4794
scalar Network700.node320 	number_of_desired_resources 	20
scalar Network700.node320 	query_homogenity_rate 	33.333333333333
scalar Network700.node320 	qrecord_time 	10036.180209294
scalar Network700.node320 	discovery_resolution_rate 	0
scalar Network700.node240 	rate_of_requesters 	1
scalar Network700.node240 	number_of_resources 	38500
scalar Network700.node240 	time_period 	2
scalar Network700.node240 	number_of_messages 	2
scalar Network700.node240 	discovery_latency 	4878
scalar Network700.node240 	number_of_desired_resources 	20
scalar Network700.node240 	query_homogenity_rate 	33.333333333333
scalar Network700.node240 	qrecord_time 	10151.312211615
scalar Network700.node240 	discovery_resolution_rate 	0
scalar Network700.node450 	rate_of_requesters 	1
scalar Network700.node450 	number_of_resources 	38500
scalar Network700.node450 	time_period 	2
scalar Network700.node450 	number_of_messages 	2
scalar Network700.node450 	discovery_latency 	4830
scalar Network700.node450 	number_of_desired_resources 	20
scalar Network700.node450 	query_homogenity_rate 	33.333333333333
scalar Network700.node450 	qrecord_time 	10223.778621203
scalar Network700.node450 	discovery_resolution_rate 	0
scalar Network700.node90 	rate_of_requesters 	1
scalar Network700.node90 	number_of_resources 	38500
scalar Network700.node90 	time_period 	2
scalar Network700.node90 	number_of_messages 	2
scalar Network700.node90 	discovery_latency 	4842
scalar Network700.node90 	number_of_desired_resources 	20
scalar Network700.node90 	query_homogenity_rate 	33.333333333333
scalar Network700.node90 	qrecord_time 	10313.633093989
scalar Network700.node90 	discovery_resolution_rate 	0
scalar Network700.node470 	rate_of_requesters 	1
scalar Network700.node470 	number_of_resources 	38500
scalar Network700.node470 	time_period 	2
scalar Network700.node470 	number_of_messages 	2
scalar Network700.node470 	discovery_latency 	4794
scalar Network700.node470 	number_of_desired_resources 	20
scalar Network700.node470 	query_homogenity_rate 	33.333333333333
scalar Network700.node470 	qrecord_time 	10320.235845717
scalar Network700.node470 	discovery_resolution_rate 	0
scalar Network700.node80 	rate_of_requesters 	1
scalar Network700.node80 	number_of_resources 	38500
scalar Network700.node80 	time_period 	2
scalar Network700.node80 	number_of_messages 	2
scalar Network700.node80 	discovery_latency 	4842
scalar Network700.node80 	number_of_desired_resources 	20
scalar Network700.node80 	query_homogenity_rate 	33.333333333333
scalar Network700.node80 	qrecord_time 	10486.467335899
scalar Network700.node80 	discovery_resolution_rate 	0
scalar Network700.node690 	rate_of_requesters 	1
scalar Network700.node690 	number_of_resources 	38500
scalar Network700.node690 	time_period 	2
scalar Network700.node690 	number_of_messages 	2
scalar Network700.node690 	discovery_latency 	4938
scalar Network700.node690 	number_of_desired_resources 	20
scalar Network700.node690 	query_homogenity_rate 	33.333333333333
scalar Network700.node690 	qrecord_time 	10568.771736519
scalar Network700.node690 	discovery_resolution_rate 	0
scalar Network700.node10 	rate_of_requesters 	1
scalar Network700.node10 	number_of_resources 	38500
scalar Network700.node10 	time_period 	2
scalar Network700.node10 	number_of_messages 	2
scalar Network700.node10 	discovery_latency 	4806
scalar Network700.node10 	number_of_desired_resources 	20
scalar Network700.node10 	query_homogenity_rate 	33.333333333333
scalar Network700.node10 	qrecord_time 	10574.0803687
scalar Network700.node10 	discovery_resolution_rate 	0
scalar Network700.node310 	rate_of_requesters 	1
scalar Network700.node310 	number_of_resources 	38500
scalar Network700.node310 	time_period 	2
scalar Network700.node310 	number_of_messages 	2
scalar Network700.node310 	discovery_latency 	4818
scalar Network700.node310 	number_of_desired_resources 	20
scalar Network700.node310 	query_homogenity_rate 	33.333333333333
scalar Network700.node310 	qrecord_time 	10598.238826111
scalar Network700.node310 	discovery_resolution_rate 	0
scalar Network700.node160 	rate_of_requesters 	1
scalar Network700.node160 	number_of_resources 	38500
scalar Network700.node160 	time_period 	2
scalar Network700.node160 	number_of_messages 	2
scalar Network700.node160 	discovery_latency 	5022
scalar Network700.node160 	number_of_desired_resources 	20
scalar Network700.node160 	query_homogenity_rate 	33.333333333333
scalar Network700.node160 	qrecord_time 	10608.817317826
scalar Network700.node160 	discovery_resolution_rate 	0
scalar Network700.node410 	rate_of_requesters 	1
scalar Network700.node410 	number_of_resources 	38500
scalar Network700.node410 	time_period 	2
scalar Network700.node410 	number_of_messages 	2
scalar Network700.node410 	discovery_latency 	4710
scalar Network700.node410 	number_of_desired_resources 	20
scalar Network700.node410 	query_homogenity_rate 	33.333333333333
scalar Network700.node410 	qrecord_time 	10637.118614337
scalar Network700.node410 	discovery_resolution_rate 	0
scalar Network700.node420 	rate_of_requesters 	1
scalar Network700.node420 	number_of_resources 	38500
scalar Network700.node420 	time_period 	2
scalar Network700.node420 	number_of_messages 	2
scalar Network700.node420 	discovery_latency 	4710
scalar Network700.node420 	number_of_desired_resources 	20
scalar Network700.node420 	query_homogenity_rate 	33.333333333333
scalar Network700.node420 	qrecord_time 	10799.431039025
scalar Network700.node420 	discovery_resolution_rate 	0
scalar Network700.node660 	rate_of_requesters 	1
scalar Network700.node660 	number_of_resources 	38500
scalar Network700.node660 	time_period 	2
scalar Network700.node660 	number_of_messages 	2
scalar Network700.node660 	discovery_latency 	4782
scalar Network700.node660 	number_of_desired_resources 	20
scalar Network700.node660 	query_homogenity_rate 	33.333333333333
scalar Network700.node660 	qrecord_time 	10804.467197527
scalar Network700.node660 	discovery_resolution_rate 	0
scalar Network700.node430 	rate_of_requesters 	1
scalar Network700.node430 	number_of_resources 	38500
scalar Network700.node430 	time_period 	2
scalar Network700.node430 	number_of_messages 	2
scalar Network700.node430 	discovery_latency 	4818
scalar Network700.node430 	number_of_desired_resources 	20
scalar Network700.node430 	query_homogenity_rate 	33.333333333333
scalar Network700.node430 	qrecord_time 	10903.15278205
scalar Network700.node430 	discovery_resolution_rate 	0
scalar Network700.node70 	rate_of_requesters 	1
scalar Network700.node70 	number_of_resources 	38500
scalar Network700.node70 	time_period 	2
scalar Network700.node70 	number_of_messages 	2
scalar Network700.node70 	discovery_latency 	4806
scalar Network700.node70 	number_of_desired_resources 	20
scalar Network700.node70 	query_homogenity_rate 	33.333333333333
scalar Network700.node70 	qrecord_time 	10913.618884231
scalar Network700.node70 	discovery_resolution_rate 	0
scalar Network700.node600 	rate_of_requesters 	1
scalar Network700.node600 	number_of_resources 	38500
scalar Network700.node600 	time_period 	2
scalar Network700.node600 	number_of_messages 	0
scalar Network700.node600 	discovery_latency 	4746
scalar Network700.node600 	number_of_desired_resources 	20
scalar Network700.node600 	query_homogenity_rate 	33.333333333333
scalar Network700.node600 	qrecord_time 	10964.529118334
scalar Network700.node600 	discovery_resolution_rate 	0
scalar Network700.node690 	rate_of_requesters 	1
scalar Network700.node690 	number_of_resources 	38500
scalar Network700.node690 	time_period 	3
scalar Network700.node690 	number_of_messages 	2
scalar Network700.node690 	discovery_latency 	4686
scalar Network700.node690 	number_of_desired_resources 	20
scalar Network700.node690 	query_homogenity_rate 	33.333333333333
scalar Network700.node690 	qrecord_time 	11048.54532795
scalar Network700.node690 	discovery_resolution_rate 	0
scalar Network700.node510 	rate_of_requesters 	1
scalar Network700.node510 	number_of_resources 	38500
scalar Network700.node510 	time_period 	2
scalar Network700.node510 	number_of_messages 	2
scalar Network700.node510 	discovery_latency 	4758
scalar Network700.node510 	number_of_desired_resources 	20
scalar Network700.node510 	query_homogenity_rate 	33.333333333333
scalar Network700.node510 	qrecord_time 	11113.528268935
scalar Network700.node510 	discovery_resolution_rate 	0
scalar Network700.node240 	rate_of_requesters 	1
scalar Network700.node240 	number_of_resources 	38500
scalar Network700.node240 	time_period 	3
scalar Network700.node240 	number_of_messages 	2
scalar Network700.node240 	discovery_latency 	4818
scalar Network700.node240 	number_of_desired_resources 	20
scalar Network700.node240 	query_homogenity_rate 	33.333333333333
scalar Network700.node240 	qrecord_time 	11144.302061396
scalar Network700.node240 	discovery_resolution_rate 	0
scalar Network700.node440 	rate_of_requesters 	1
scalar Network700.node440 	number_of_resources 	38500
scalar Network700.node440 	time_period 	2
scalar Network700.node440 	number_of_messages 	2
scalar Network700.node440 	discovery_latency 	4746
scalar Network700.node440 	number_of_desired_resources 	20
scalar Network700.node440 	query_homogenity_rate 	33.333333333333
scalar Network700.node440 	qrecord_time 	11184.068631786
scalar Network700.node440 	discovery_resolution_rate 	0
scalar Network700.node330 	rate_of_requesters 	1
scalar Network700.node330 	number_of_resources 	38500
scalar Network700.node330 	time_period 	2
scalar Network700.node330 	number_of_messages 	2
scalar Network700.node330 	discovery_latency 	4890
scalar Network700.node330 	number_of_desired_resources 	20
scalar Network700.node330 	query_homogenity_rate 	33.333333333333
scalar Network700.node330 	qrecord_time 	11400.460284976
scalar Network700.node330 	discovery_resolution_rate 	0
scalar Network700.node200 	rate_of_requesters 	1
scalar Network700.node200 	number_of_resources 	38500
scalar Network700.node200 	time_period 	2
scalar Network700.node200 	number_of_messages 	2
scalar Network700.node200 	discovery_latency 	4746
scalar Network700.node200 	number_of_desired_resources 	20
scalar Network700.node200 	query_homogenity_rate 	33.333333333333
scalar Network700.node200 	qrecord_time 	11434.732271028
scalar Network700.node200 	discovery_resolution_rate 	0
scalar Network700.node20 	rate_of_requesters 	1
scalar Network700.node20 	number_of_resources 	38500
scalar Network700.node20 	time_period 	2
scalar Network700.node20 	number_of_messages 	2
scalar Network700.node20 	discovery_latency 	4806
scalar Network700.node20 	number_of_desired_resources 	20
scalar Network700.node20 	query_homogenity_rate 	33.333333333333
scalar Network700.node20 	qrecord_time 	11476.826658853
scalar Network700.node20 	discovery_resolution_rate 	0
scalar Network700.node320 	rate_of_requesters 	1
scalar Network700.node320 	number_of_resources 	38500
scalar Network700.node320 	time_period 	3
scalar Network700.node320 	number_of_messages 	2
scalar Network700.node320 	discovery_latency 	4926
scalar Network700.node320 	number_of_desired_resources 	20
scalar Network700.node320 	query_homogenity_rate 	33.333333333333
scalar Network700.node320 	qrecord_time 	11581.848412555
scalar Network700.node320 	discovery_resolution_rate 	0
scalar Network700.node620 	rate_of_requesters 	1
scalar Network700.node620 	number_of_resources 	38500
scalar Network700.node620 	time_period 	2
scalar Network700.node620 	number_of_messages 	2
scalar Network700.node620 	discovery_latency 	4722
scalar Network700.node620 	number_of_desired_resources 	20
scalar Network700.node620 	query_homogenity_rate 	33.333333333333
scalar Network700.node620 	qrecord_time 	11648.753461135
scalar Network700.node620 	discovery_resolution_rate 	0
scalar Network700.node640 	rate_of_requesters 	1
scalar Network700.node640 	number_of_resources 	38500
scalar Network700.node640 	time_period 	2
scalar Network700.node640 	number_of_messages 	2
scalar Network700.node640 	discovery_latency 	4746
scalar Network700.node640 	number_of_desired_resources 	20
scalar Network700.node640 	query_homogenity_rate 	33.333333333333
scalar Network700.node640 	qrecord_time 	11667.974559934
scalar Network700.node640 	discovery_resolution_rate 	0
scalar Network700.node380 	rate_of_requesters 	1
scalar Network700.node380 	number_of_resources 	38500
scalar Network700.node380 	time_period 	2
scalar Network700.node380 	number_of_messages 	2
scalar Network700.node380 	discovery_latency 	4698
scalar Network700.node380 	number_of_desired_resources 	20
scalar Network700.node380 	query_homogenity_rate 	33.333333333333
scalar Network700.node380 	qrecord_time 	11721.346440443
scalar Network700.node380 	discovery_resolution_rate 	0
scalar Network700.node480 	rate_of_requesters 	1
scalar Network700.node480 	number_of_resources 	38500
scalar Network700.node480 	time_period 	2
scalar Network700.node480 	number_of_messages 	2
scalar Network700.node480 	discovery_latency 	4854
scalar Network700.node480 	number_of_desired_resources 	20
scalar Network700.node480 	query_homogenity_rate 	33.333333333333
scalar Network700.node480 	qrecord_time 	11822.001639768
scalar Network700.node480 	discovery_resolution_rate 	0
scalar Network700.node20 	rate_of_requesters 	1
scalar Network700.node20 	number_of_resources 	38500
scalar Network700.node20 	time_period 	3
scalar Network700.node20 	number_of_messages 	2
scalar Network700.node20 	discovery_latency 	4998
scalar Network700.node20 	number_of_desired_resources 	20
scalar Network700.node20 	query_homogenity_rate 	33.333333333333
scalar Network700.node20 	qrecord_time 	11856.152990179
scalar Network700.node20 	discovery_resolution_rate 	0
scalar Network700.node610 	rate_of_requesters 	1
scalar Network700.node610 	number_of_resources 	38500
scalar Network700.node610 	time_period 	2
scalar Network700.node610 	number_of_messages 	2
scalar Network700.node610 	discovery_latency 	4866
scalar Network700.node610 	number_of_desired_resources 	20
scalar Network700.node610 	query_homogenity_rate 	33.333333333333
scalar Network700.node610 	qrecord_time 	11904.272650797
scalar Network700.node610 	discovery_resolution_rate 	0
scalar Network700.node690 	rate_of_requesters 	1
scalar Network700.node690 	number_of_resources 	38500
scalar Network700.node690 	time_period 	4
scalar Network700.node690 	number_of_messages 	2
scalar Network700.node690 	discovery_latency 	4770
scalar Network700.node690 	number_of_desired_resources 	20
scalar Network700.node690 	query_homogenity_rate 	33.333333333333
scalar Network700.node690 	qrecord_time 	12048.84178913
scalar Network700.node690 	discovery_resolution_rate 	0
scalar Network700.node380 	rate_of_requesters 	1
scalar Network700.node380 	number_of_resources 	38500
scalar Network700.node380 	time_period 	3
scalar Network700.node380 	number_of_messages 	2
scalar Network700.node380 	discovery_latency 	4842
scalar Network700.node380 	number_of_desired_resources 	20
scalar Network700.node380 	query_homogenity_rate 	33.333333333333
scalar Network700.node380 	qrecord_time 	12113.465114497
scalar Network700.node380 	discovery_resolution_rate 	0
scalar Network700.node600 	rate_of_requesters 	1
scalar Network700.node600 	number_of_resources 	38500
scalar Network700.node600 	time_period 	3
scalar Network700.node600 	number_of_messages 	0
scalar Network700.node600 	discovery_latency 	4986
scalar Network700.node600 	number_of_desired_resources 	20
scalar Network700.node600 	query_homogenity_rate 	33.333333333333
scalar Network700.node600 	qrecord_time 	12131.913344588
scalar Network700.node600 	discovery_resolution_rate 	0
scalar Network700.node660 	rate_of_requesters 	1
scalar Network700.node660 	number_of_resources 	38500
scalar Network700.node660 	time_period 	3
scalar Network700.node660 	number_of_messages 	2
scalar Network700.node660 	discovery_latency 	4734
scalar Network700.node660 	number_of_desired_resources 	20
scalar Network700.node660 	query_homogenity_rate 	33.333333333333
scalar Network700.node660 	qrecord_time 	12146.394202321
scalar Network700.node660 	discovery_resolution_rate 	0
scalar Network700.node190 	rate_of_requesters 	1
scalar Network700.node190 	number_of_resources 	38500
scalar Network700.node190 	time_period 	2
scalar Network700.node190 	number_of_messages 	2
scalar Network700.node190 	discovery_latency 	4950
scalar Network700.node190 	number_of_desired_resources 	20
scalar Network700.node190 	query_homogenity_rate 	33.333333333333
scalar Network700.node190 	qrecord_time 	12225.529273909
scalar Network700.node190 	discovery_resolution_rate 	0
scalar Network700.node330 	rate_of_requesters 	1
scalar Network700.node330 	number_of_resources 	38500
scalar Network700.node330 	time_period 	3
scalar Network700.node330 	number_of_messages 	2
scalar Network700.node330 	discovery_latency 	5022
scalar Network700.node330 	number_of_desired_resources 	20
scalar Network700.node330 	query_homogenity_rate 	33.333333333333
scalar Network700.node330 	qrecord_time 	12305.336902679
scalar Network700.node330 	discovery_resolution_rate 	0
scalar Network700.node150 	rate_of_requesters 	1
scalar Network700.node150 	number_of_resources 	38500
scalar Network700.node150 	time_period 	2
scalar Network700.node150 	number_of_messages 	0
scalar Network700.node150 	discovery_latency 	4878
scalar Network700.node150 	number_of_desired_resources 	20
scalar Network700.node150 	query_homogenity_rate 	33.333333333333
scalar Network700.node150 	qrecord_time 	12311.212333882
scalar Network700.node150 	discovery_resolution_rate 	0
scalar Network700.node40 	rate_of_requesters 	1
scalar Network700.node40 	number_of_resources 	38500
scalar Network700.node40 	time_period 	2
scalar Network700.node40 	number_of_messages 	2
scalar Network700.node40 	discovery_latency 	4686
scalar Network700.node40 	number_of_desired_resources 	20
scalar Network700.node40 	query_homogenity_rate 	33.333333333333
scalar Network700.node40 	qrecord_time 	12463.148596303
scalar Network700.node40 	discovery_resolution_rate 	0
scalar Network700.node510 	rate_of_requesters 	1
scalar Network700.node510 	number_of_resources 	38500
scalar Network700.node510 	time_period 	3
scalar Network700.node510 	number_of_messages 	2
scalar Network700.node510 	discovery_latency 	4794
scalar Network700.node510 	number_of_desired_resources 	20
scalar Network700.node510 	query_homogenity_rate 	33.333333333333
scalar Network700.node510 	qrecord_time 	12469.351780179
scalar Network700.node510 	discovery_resolution_rate 	0
scalar Network700.node230 	rate_of_requesters 	1
scalar Network700.node230 	number_of_resources 	38500
scalar Network700.node230 	time_period 	2
scalar Network700.node230 	number_of_messages 	0
scalar Network700.node230 	discovery_latency 	4866
scalar Network700.node230 	number_of_desired_resources 	20
scalar Network700.node230 	query_homogenity_rate 	33.333333333333
scalar Network700.node230 	qrecord_time 	12506.262208322
scalar Network700.node230 	discovery_resolution_rate 	0
scalar Network700.node240 	rate_of_requesters 	1
scalar Network700.node240 	number_of_resources 	38500
scalar Network700.node240 	time_period 	4
scalar Network700.node240 	number_of_messages 	2
scalar Network700.node240 	discovery_latency 	4938
scalar Network700.node240 	number_of_desired_resources 	20
scalar Network700.node240 	query_homogenity_rate 	33.333333333333
scalar Network700.node240 	qrecord_time 	12616.348921049
scalar Network700.node240 	discovery_resolution_rate 	0
scalar Network700.node20 	rate_of_requesters 	1
scalar Network700.node20 	number_of_resources 	38500
scalar Network700.node20 	time_period 	4
scalar Network700.node20 	number_of_messages 	2
scalar Network700.node20 	discovery_latency 	4806
scalar Network700.node20 	number_of_desired_resources 	20
scalar Network700.node20 	query_homogenity_rate 	33.333333333333
scalar Network700.node20 	qrecord_time 	12646.757348319
scalar Network700.node20 	discovery_resolution_rate 	0
scalar Network700.node180 	rate_of_requesters 	1
scalar Network700.node180 	number_of_resources 	38500
scalar Network700.node180 	time_period 	2
scalar Network700.node180 	number_of_messages 	2
scalar Network700.node180 	discovery_latency 	4794
scalar Network700.node180 	number_of_desired_resources 	20
scalar Network700.node180 	query_homogenity_rate 	33.333333333333
scalar Network700.node180 	qrecord_time 	12660.318033836
scalar Network700.node180 	discovery_resolution_rate 	0
scalar Network700.node240 	rate_of_requesters 	1
scalar Network700.node240 	number_of_resources 	38500
scalar Network700.node240 	time_period 	5
scalar Network700.node240 	number_of_messages 	2
scalar Network700.node240 	discovery_latency 	4842
scalar Network700.node240 	number_of_desired_resources 	20
scalar Network700.node240 	query_homogenity_rate 	33.333333333333
scalar Network700.node240 	qrecord_time 	12709.517900386
scalar Network700.node240 	discovery_resolution_rate 	0
scalar Network700.node0 	rate_of_requesters 	1
scalar Network700.node0 	number_of_resources 	38500
scalar Network700.node0 	time_period 	4
scalar Network700.node0 	number_of_messages 	34
scalar Network700.node0 	discovery_latency 	282
scalar Network700.node0 	number_of_desired_resources 	20
scalar Network700.node0 	query_homogenity_rate 	33.333333333333
scalar Network700.node0 	qrecord_time 	12709.806421379
scalar Network700.node0 	discovery_resolution_rate 	100
scalar Network700.node160 	rate_of_requesters 	1
scalar Network700.node160 	number_of_resources 	38500
scalar Network700.node160 	time_period 	3
scalar Network700.node160 	number_of_messages 	2
scalar Network700.node160 	discovery_latency 	5070
scalar Network700.node160 	number_of_desired_resources 	20
scalar Network700.node160 	query_homogenity_rate 	33.333333333333
scalar Network700.node160 	qrecord_time 	12797.422491208
scalar Network700.node160 	discovery_resolution_rate 	0
scalar Network700.node420 	rate_of_requesters 	1
scalar Network700.node420 	number_of_resources 	38500
scalar Network700.node420 	time_period 	3
scalar Network700.node420 	number_of_messages 	2
scalar Network700.node420 	discovery_latency 	4770
scalar Network700.node420 	number_of_desired_resources 	20
scalar Network700.node420 	query_homogenity_rate 	33.333333333333
scalar Network700.node420 	qrecord_time 	13158.420799717
scalar Network700.node420 	discovery_resolution_rate 	0
scalar Network700.node50 	rate_of_requesters 	1
scalar Network700.node50 	number_of_resources 	38500
scalar Network700.node50 	time_period 	2
scalar Network700.node50 	number_of_messages 	200
scalar Network700.node50 	discovery_latency 	4440
scalar Network700.node50 	number_of_desired_resources 	20
scalar Network700.node50 	query_homogenity_rate 	33.333333333333
scalar Network700.node50 	qrecord_time 	13230.582529383
scalar Network700.node50 	discovery_resolution_rate 	33.333333333333
scalar Network700.node640 	rate_of_requesters 	1
scalar Network700.node640 	number_of_resources 	38500
scalar Network700.node640 	time_period 	3
scalar Network700.node640 	number_of_messages 	2
scalar Network700.node640 	discovery_latency 	4938
scalar Network700.node640 	number_of_desired_resources 	20
scalar Network700.node640 	query_homogenity_rate 	33.333333333333
scalar Network700.node640 	qrecord_time 	13262.496140467
scalar Network700.node640 	discovery_resolution_rate 	0
scalar Network700.node500 	rate_of_requesters 	1
scalar Network700.node500 	number_of_resources 	38500
scalar Network700.node500 	time_period 	2
scalar Network700.node500 	number_of_messages 	2
scalar Network700.node500 	discovery_latency 	4818
scalar Network700.node500 	number_of_desired_resources 	20
scalar Network700.node500 	query_homogenity_rate 	33.333333333333
scalar Network700.node500 	qrecord_time 	13266.20350445
scalar Network700.node500 	discovery_resolution_rate 	0
scalar Network700.node460 	rate_of_requesters 	1
scalar Network700.node460 	number_of_resources 	38500
scalar Network700.node460 	time_period 	3
scalar Network700.node460 	number_of_messages 	2
scalar Network700.node460 	discovery_latency 	4746
scalar Network700.node460 	number_of_desired_resources 	20
scalar Network700.node460 	query_homogenity_rate 	33.333333333333
scalar Network700.node460 	qrecord_time 	13293.225780757
scalar Network700.node460 	discovery_resolution_rate 	0
scalar Network700.node150 	rate_of_requesters 	1
scalar Network700.node150 	number_of_resources 	38500
scalar Network700.node150 	time_period 	3
scalar Network700.node150 	number_of_messages 	0
scalar Network700.node150 	discovery_latency 	4902
scalar Network700.node150 	number_of_desired_resources 	20
scalar Network700.node150 	query_homogenity_rate 	33.333333333333
scalar Network700.node150 	qrecord_time 	13301.745146468
scalar Network700.node150 	discovery_resolution_rate 	0
scalar Network700.node520 	rate_of_requesters 	1
scalar Network700.node520 	number_of_resources 	38500
scalar Network700.node520 	time_period 	2
scalar Network700.node520 	number_of_messages 	2
scalar Network700.node520 	discovery_latency 	4722
scalar Network700.node520 	number_of_desired_resources 	20
scalar Network700.node520 	query_homogenity_rate 	33.333333333333
scalar Network700.node520 	qrecord_time 	13307.226724359
scalar Network700.node520 	discovery_resolution_rate 	0
scalar Network700.node430 	rate_of_requesters 	1
scalar Network700.node430 	number_of_resources 	38500
scalar Network700.node430 	time_period 	4
scalar Network700.node430 	number_of_messages 	56
scalar Network700.node430 	discovery_latency 	576
scalar Network700.node430 	number_of_desired_resources 	20
scalar Network700.node430 	query_homogenity_rate 	33.333333333333
scalar Network700.node430 	qrecord_time 	13322.538953166
scalar Network700.node430 	discovery_resolution_rate 	100
scalar Network700.node460 	rate_of_requesters 	1
scalar Network700.node460 	number_of_resources 	38500
scalar Network700.node460 	time_period 	2
scalar Network700.node460 	number_of_messages 	2
scalar Network700.node460 	discovery_latency 	4926
scalar Network700.node460 	number_of_desired_resources 	20
scalar Network700.node460 	query_homogenity_rate 	33.333333333333
scalar Network700.node460 	qrecord_time 	13343.744837746
scalar Network700.node460 	discovery_resolution_rate 	0
scalar Network700.node360 	rate_of_requesters 	1
scalar Network700.node360 	number_of_resources 	38500
scalar Network700.node360 	time_period 	2
scalar Network700.node360 	number_of_messages 	2
scalar Network700.node360 	discovery_latency 	4842
scalar Network700.node360 	number_of_desired_resources 	20
scalar Network700.node360 	query_homogenity_rate 	33.333333333333
scalar Network700.node360 	qrecord_time 	13431.411524444
scalar Network700.node360 	discovery_resolution_rate 	0
scalar Network700.node210 	rate_of_requesters 	1
scalar Network700.node210 	number_of_resources 	38500
scalar Network700.node210 	time_period 	3
scalar Network700.node210 	number_of_messages 	2
scalar Network700.node210 	discovery_latency 	4938
scalar Network700.node210 	number_of_desired_resources 	20
scalar Network700.node210 	query_homogenity_rate 	33.333333333333
scalar Network700.node210 	qrecord_time 	13438.507016266
scalar Network700.node210 	discovery_resolution_rate 	0
scalar Network700.node150 	rate_of_requesters 	1
scalar Network700.node150 	number_of_resources 	38500
scalar Network700.node150 	time_period 	4
scalar Network700.node150 	number_of_messages 	0
scalar Network700.node150 	discovery_latency 	4890
scalar Network700.node150 	number_of_desired_resources 	20
scalar Network700.node150 	query_homogenity_rate 	33.333333333333
scalar Network700.node150 	qrecord_time 	13491.300987086
scalar Network700.node150 	discovery_resolution_rate 	0
scalar Network700.node240 	rate_of_requesters 	1
scalar Network700.node240 	number_of_resources 	38500
scalar Network700.node240 	time_period 	6
scalar Network700.node240 	number_of_messages 	2
scalar Network700.node240 	discovery_latency 	5070
scalar Network700.node240 	number_of_desired_resources 	20
scalar Network700.node240 	query_homogenity_rate 	33.333333333333
scalar Network700.node240 	qrecord_time 	13524.74672075
scalar Network700.node240 	discovery_resolution_rate 	0
scalar Network700.node200 	rate_of_requesters 	1
scalar Network700.node200 	number_of_resources 	38500
scalar Network700.node200 	time_period 	3
scalar Network700.node200 	number_of_messages 	2
scalar Network700.node200 	discovery_latency 	4818
scalar Network700.node200 	number_of_desired_resources 	20
scalar Network700.node200 	query_homogenity_rate 	33.333333333333
scalar Network700.node200 	qrecord_time 	13558.54052477
scalar Network700.node200 	discovery_resolution_rate 	0
scalar Network700.node370 	rate_of_requesters 	1
scalar Network700.node370 	number_of_resources 	38500
scalar Network700.node370 	time_period 	2
scalar Network700.node370 	number_of_messages 	0
scalar Network700.node370 	discovery_latency 	4818
scalar Network700.node370 	number_of_desired_resources 	20
scalar Network700.node370 	query_homogenity_rate 	33.333333333333
scalar Network700.node370 	qrecord_time 	13633.639506322
scalar Network700.node370 	discovery_resolution_rate 	0
scalar Network700.node0 	rate_of_requesters 	1
scalar Network700.node0 	number_of_resources 	38500
scalar Network700.node0 	time_period 	2
scalar Network700.node0 	number_of_messages 	0
scalar Network700.node0 	discovery_latency 	4818
scalar Network700.node0 	number_of_desired_resources 	20
scalar Network700.node0 	query_homogenity_rate 	33.333333333333
scalar Network700.node0 	qrecord_time 	13726.346223948
scalar Network700.node0 	discovery_resolution_rate 	0
scalar Network700.node400 	rate_of_requesters 	1
scalar Network700.node400 	number_of_resources 	38500
scalar Network700.node400 	time_period 	2
scalar Network700.node400 	number_of_messages 	2
scalar Network700.node400 	discovery_latency 	4806
scalar Network700.node400 	number_of_desired_resources 	20
scalar Network700.node400 	query_homogenity_rate 	33.333333333333
scalar Network700.node400 	qrecord_time 	13834.631846256
scalar Network700.node400 	discovery_resolution_rate 	0
scalar Network700.node270 	rate_of_requesters 	1
scalar Network700.node270 	number_of_resources 	38500
scalar Network700.node270 	time_period 	3
scalar Network700.node270 	number_of_messages 	2
scalar Network700.node270 	discovery_latency 	4926
scalar Network700.node270 	number_of_desired_resources 	20
scalar Network700.node270 	query_homogenity_rate 	33.333333333333
scalar Network700.node270 	qrecord_time 	13895.434232413
scalar Network700.node270 	discovery_resolution_rate 	0
scalar Network700.node220 	rate_of_requesters 	1
scalar Network700.node220 	number_of_resources 	38500
scalar Network700.node220 	time_period 	3
scalar Network700.node220 	number_of_messages 	193
scalar Network700.node220 	discovery_latency 	4512
scalar Network700.node220 	number_of_desired_resources 	20
scalar Network700.node220 	query_homogenity_rate 	33.333333333333
scalar Network700.node220 	qrecord_time 	13990.369664519
scalar Network700.node220 	discovery_resolution_rate 	33.333333333333
scalar Network700.node360 	rate_of_requesters 	1
scalar Network700.node360 	number_of_resources 	38500
scalar Network700.node360 	time_period 	3
scalar Network700.node360 	number_of_messages 	2
scalar Network700.node360 	discovery_latency 	4998
scalar Network700.node360 	number_of_desired_resources 	20
scalar Network700.node360 	query_homogenity_rate 	33.333333333333
scalar Network700.node360 	qrecord_time 	14067.522236568
scalar Network700.node360 	discovery_resolution_rate 	0
scalar Network700.node640 	rate_of_requesters 	1
scalar Network700.node640 	number_of_resources 	38500
scalar Network700.node640 	time_period 	4
scalar Network700.node640 	number_of_messages 	2
scalar Network700.node640 	discovery_latency 	4902
scalar Network700.node640 	number_of_desired_resources 	20
scalar Network700.node640 	query_homogenity_rate 	33.333333333333
scalar Network700.node640 	qrecord_time 	14125.673425823
scalar Network700.node640 	discovery_resolution_rate 	0
scalar Network700.node660 	rate_of_requesters 	1
scalar Network700.node660 	number_of_resources 	38500
scalar Network700.node660 	time_period 	4
scalar Network700.node660 	number_of_messages 	2
scalar Network700.node660 	discovery_latency 	4914
scalar Network700.node660 	number_of_desired_resources 	20
scalar Network700.node660 	query_homogenity_rate 	33.333333333333
scalar Network700.node660 	qrecord_time 	14145.830324865
scalar Network700.node660 	discovery_resolution_rate 	0
scalar Network700.node200 	rate_of_requesters 	1
scalar Network700.node200 	number_of_resources 	38500
scalar Network700.node200 	time_period 	4
scalar Network700.node200 	number_of_messages 	2
scalar Network700.node200 	discovery_latency 	4974
scalar Network700.node200 	number_of_desired_resources 	20
scalar Network700.node200 	query_homogenity_rate 	33.333333333333
scalar Network700.node200 	qrecord_time 	14180.406520935
scalar Network700.node200 	discovery_resolution_rate 	0
scalar Network700.node250 	rate_of_requesters 	1
scalar Network700.node250 	number_of_resources 	38500
scalar Network700.node250 	time_period 	2
scalar Network700.node250 	number_of_messages 	53
scalar Network700.node250 	discovery_latency 	4572
scalar Network700.node250 	number_of_desired_resources 	20
scalar Network700.node250 	query_homogenity_rate 	33.333333333333
scalar Network700.node250 	qrecord_time 	14189.558372859
scalar Network700.node250 	discovery_resolution_rate 	33.333333333333
scalar Network700.node670 	rate_of_requesters 	1
scalar Network700.node670 	number_of_resources 	38500
scalar Network700.node670 	time_period 	3
scalar Network700.node670 	number_of_messages 	2
scalar Network700.node670 	discovery_latency 	4866
scalar Network700.node670 	number_of_desired_resources 	20
scalar Network700.node670 	query_homogenity_rate 	33.333333333333
scalar Network700.node670 	qrecord_time 	14333.334702166
scalar Network700.node670 	discovery_resolution_rate 	0
scalar Network700.node440 	rate_of_requesters 	1
scalar Network700.node440 	number_of_resources 	38500
scalar Network700.node440 	time_period 	3
scalar Network700.node440 	number_of_messages 	2
scalar Network700.node440 	discovery_latency 	4842
scalar Network700.node440 	number_of_desired_resources 	20
scalar Network700.node440 	query_homogenity_rate 	33.333333333333
scalar Network700.node440 	qrecord_time 	14377.553446607
scalar Network700.node440 	discovery_resolution_rate 	0
scalar Network700.node580 	rate_of_requesters 	1
scalar Network700.node580 	number_of_resources 	38500
scalar Network700.node580 	time_period 	2
scalar Network700.node580 	number_of_messages 	2
scalar Network700.node580 	discovery_latency 	5010
scalar Network700.node580 	number_of_desired_resources 	20
scalar Network700.node580 	query_homogenity_rate 	33.333333333333
scalar Network700.node580 	qrecord_time 	14430.577740852
scalar Network700.node580 	discovery_resolution_rate 	0
scalar Network700.node270 	rate_of_requesters 	1
scalar Network700.node270 	number_of_resources 	38500
scalar Network700.node270 	time_period 	4
scalar Network700.node270 	number_of_messages 	2
scalar Network700.node270 	discovery_latency 	4926
scalar Network700.node270 	number_of_desired_resources 	20
scalar Network700.node270 	query_homogenity_rate 	33.333333333333
scalar Network700.node270 	qrecord_time 	14473.476266979
scalar Network700.node270 	discovery_resolution_rate 	0
scalar Network700.node320 	rate_of_requesters 	1
scalar Network700.node320 	number_of_resources 	38500
scalar Network700.node320 	time_period 	4
scalar Network700.node320 	number_of_messages 	2
scalar Network700.node320 	discovery_latency 	4878
scalar Network700.node320 	number_of_desired_resources 	20
scalar Network700.node320 	query_homogenity_rate 	33.333333333333
scalar Network700.node320 	qrecord_time 	14502.242917555
scalar Network700.node320 	discovery_resolution_rate 	0
scalar Network700.node60 	rate_of_requesters 	1
scalar Network700.node60 	number_of_resources 	38500
scalar Network700.node60 	time_period 	2
scalar Network700.node60 	number_of_messages 	2
scalar Network700.node60 	discovery_latency 	4938
scalar Network700.node60 	number_of_desired_resources 	20
scalar Network700.node60 	query_homogenity_rate 	33.333333333333
scalar Network700.node60 	qrecord_time 	14513.872713862
scalar Network700.node60 	discovery_resolution_rate 	0
scalar Network700.node220 	rate_of_requesters 	1
scalar Network700.node220 	number_of_resources 	38500
scalar Network700.node220 	time_period 	2
scalar Network700.node220 	number_of_messages 	2
scalar Network700.node220 	discovery_latency 	5046
scalar Network700.node220 	number_of_desired_resources 	20
scalar Network700.node220 	query_homogenity_rate 	33.333333333333
scalar Network700.node220 	qrecord_time 	14518.612324492
scalar Network700.node220 	discovery_resolution_rate 	0
scalar Network700.node410 	rate_of_requesters 	1
scalar Network700.node410 	number_of_resources 	38500
scalar Network700.node410 	time_period 	3
scalar Network700.node410 	number_of_messages 	2
scalar Network700.node410 	discovery_latency 	5034
scalar Network700.node410 	number_of_desired_resources 	20
scalar Network700.node410 	query_homogenity_rate 	33.333333333333
scalar Network700.node410 	qrecord_time 	14628.268254679
scalar Network700.node410 	discovery_resolution_rate 	0
scalar Network700.node640 	rate_of_requesters 	1
scalar Network700.node640 	number_of_resources 	38500
scalar Network700.node640 	time_period 	5
scalar Network700.node640 	number_of_messages 	2
scalar Network700.node640 	discovery_latency 	4926
scalar Network700.node640 	number_of_desired_resources 	20
scalar Network700.node640 	query_homogenity_rate 	33.333333333333
scalar Network700.node640 	qrecord_time 	14688.899195553
scalar Network700.node640 	discovery_resolution_rate 	0
scalar Network700.node570 	rate_of_requesters 	1
scalar Network700.node570 	number_of_resources 	38500
scalar Network700.node570 	time_period 	2
scalar Network700.node570 	number_of_messages 	2
scalar Network700.node570 	discovery_latency 	4938
scalar Network700.node570 	number_of_desired_resources 	20
scalar Network700.node570 	query_homogenity_rate 	33.333333333333
scalar Network700.node570 	qrecord_time 	14715.132962027
scalar Network700.node570 	discovery_resolution_rate 	0
scalar Network700.node260 	rate_of_requesters 	1
scalar Network700.node260 	number_of_resources 	38500
scalar Network700.node260 	time_period 	2
scalar Network700.node260 	number_of_messages 	2
scalar Network700.node260 	discovery_latency 	4950
scalar Network700.node260 	number_of_desired_resources 	20
scalar Network700.node260 	query_homogenity_rate 	33.333333333333
scalar Network700.node260 	qrecord_time 	14744.737059777
scalar Network700.node260 	discovery_resolution_rate 	0
scalar Network700.node470 	rate_of_requesters 	1
scalar Network700.node470 	number_of_resources 	38500
scalar Network700.node470 	time_period 	3
scalar Network700.node470 	number_of_messages 	2
scalar Network700.node470 	discovery_latency 	4986
scalar Network700.node470 	number_of_desired_resources 	20
scalar Network700.node470 	query_homogenity_rate 	33.333333333333
scalar Network700.node470 	qrecord_time 	14797.140036029
scalar Network700.node470 	discovery_resolution_rate 	0
scalar Network700.node40 	rate_of_requesters 	1
scalar Network700.node40 	number_of_resources 	38500
scalar Network700.node40 	time_period 	4
scalar Network700.node40 	number_of_messages 	93
scalar Network700.node40 	discovery_latency 	4500
scalar Network700.node40 	number_of_desired_resources 	20
scalar Network700.node40 	query_homogenity_rate 	33.333333333333
scalar Network700.node40 	qrecord_time 	14818.291510437
scalar Network700.node40 	discovery_resolution_rate 	66.666666666667
scalar Network700.node80 	rate_of_requesters 	1
scalar Network700.node80 	number_of_resources 	38500
scalar Network700.node80 	time_period 	3
scalar Network700.node80 	number_of_messages 	50
scalar Network700.node80 	discovery_latency 	4236
scalar Network700.node80 	number_of_desired_resources 	20
scalar Network700.node80 	query_homogenity_rate 	33.333333333333
scalar Network700.node80 	qrecord_time 	14964.536664605
scalar Network700.node80 	discovery_resolution_rate 	66.666666666667
scalar Network700.node600 	rate_of_requesters 	1
scalar Network700.node600 	number_of_resources 	38500
scalar Network700.node600 	time_period 	4
scalar Network700.node600 	number_of_messages 	0
scalar Network700.node600 	discovery_latency 	4830
scalar Network700.node600 	number_of_desired_resources 	20
scalar Network700.node600 	query_homogenity_rate 	33.333333333333
scalar Network700.node600 	qrecord_time 	14987.666499942
scalar Network700.node600 	discovery_resolution_rate 	0
scalar Network700.node130 	rate_of_requesters 	1
scalar Network700.node130 	number_of_resources 	38500
scalar Network700.node130 	time_period 	2
scalar Network700.node130 	number_of_messages 	2
scalar Network700.node130 	discovery_latency 	4926
scalar Network700.node130 	number_of_desired_resources 	20
scalar Network700.node130 	query_homogenity_rate 	33.333333333333
scalar Network700.node130 	qrecord_time 	14993.598061311
scalar Network700.node130 	discovery_resolution_rate 	0
scalar Network700.node500 	rate_of_requesters 	1
scalar Network700.node500 	number_of_resources 	38500
scalar Network700.node500 	time_period 	3
scalar Network700.node500 	number_of_messages 	2
scalar Network700.node500 	discovery_latency 	4914
scalar Network700.node500 	number_of_desired_resources 	20
scalar Network700.node500 	query_homogenity_rate 	33.333333333333
[...]
scalar Network700.node510 	discovery_latency 	1320
scalar Network700.node510 	number_of_desired_resources 	20
scalar Network700.node510 	query_homogenity_rate 	33.333333333333
scalar Network700.node510 	qrecord_time 	50936.092565021
scalar Network700.node510 	discovery_resolution_rate 	100
scalar Network700.node310 	rate_of_requesters 	1
scalar Network700.node310 	number_of_resources 	38500
scalar Network700.node310 	time_period 	10
scalar Network700.node310 	number_of_messages 	28
scalar Network700.node310 	discovery_latency 	4236
scalar Network700.node310 	number_of_desired_resources 	20
scalar Network700.node310 	query_homogenity_rate 	33.333333333333
scalar Network700.node310 	qrecord_time 	51063.279763856
scalar Network700.node310 	discovery_resolution_rate 	66.666666666667
scalar Network700.node350 	rate_of_requesters 	1
scalar Network700.node350 	number_of_resources 	38500
scalar Network700.node350 	time_period 	10
scalar Network700.node350 	number_of_messages 	223
scalar Network700.node350 	discovery_latency 	4524
scalar Network700.node350 	number_of_desired_resources 	20
scalar Network700.node350 	query_homogenity_rate 	33.333333333333
scalar Network700.node350 	qrecord_time 	51827.791950062
scalar Network700.node350 	discovery_resolution_rate 	50
scalar Network700.node60 	rate_of_requesters 	1
scalar Network700.node60 	number_of_resources 	38500
scalar Network700.node60 	time_period 	8
scalar Network700.node60 	number_of_messages 	32
scalar Network700.node60 	discovery_latency 	204
scalar Network700.node60 	number_of_desired_resources 	20
scalar Network700.node60 	query_homogenity_rate 	33.333333333333
scalar Network700.node60 	qrecord_time 	52196.404380645
scalar Network700.node60 	discovery_resolution_rate 	100
scalar Network700.node280 	rate_of_requesters 	1
scalar Network700.node280 	number_of_resources 	38500
scalar Network700.node280 	time_period 	9
scalar Network700.node280 	number_of_messages 	82
scalar Network700.node280 	discovery_latency 	1140
scalar Network700.node280 	number_of_desired_resources 	20
scalar Network700.node280 	query_homogenity_rate 	33.333333333333
scalar Network700.node280 	qrecord_time 	52286.751403745
scalar Network700.node280 	discovery_resolution_rate 	100
scalar Network700.node510 	rate_of_requesters 	1
scalar Network700.node510 	number_of_resources 	38500
scalar Network700.node510 	time_period 	9
scalar Network700.node510 	number_of_messages 	50
scalar Network700.node510 	discovery_latency 	348
scalar Network700.node510 	number_of_desired_resources 	20
scalar Network700.node510 	query_homogenity_rate 	33.333333333333
scalar Network700.node510 	qrecord_time 	52716.970285016
scalar Network700.node510 	discovery_resolution_rate 	100
scalar Network700.node280 	rate_of_requesters 	1
scalar Network700.node280 	number_of_resources 	38500
scalar Network700.node280 	time_period 	8
scalar Network700.node280 	number_of_messages 	49
scalar Network700.node280 	discovery_latency 	4104
scalar Network700.node280 	number_of_desired_resources 	20
scalar Network700.node280 	query_homogenity_rate 	33.333333333333
scalar Network700.node280 	qrecord_time 	52728.740460359
scalar Network700.node280 	discovery_resolution_rate 	66.666666666667
scalar Network700.node540 	rate_of_requesters 	1
scalar Network700.node540 	number_of_resources 	38500
scalar Network700.node540 	time_period 	9
scalar Network700.node540 	number_of_messages 	23
scalar Network700.node540 	discovery_latency 	4080
scalar Network700.node540 	number_of_desired_resources 	20
scalar Network700.node540 	query_homogenity_rate 	33.333333333333
scalar Network700.node540 	qrecord_time 	53140.120191815
scalar Network700.node540 	discovery_resolution_rate 	66.666666666667
scalar Network700.node170 	rate_of_requesters 	1
scalar Network700.node170 	number_of_resources 	38500
scalar Network700.node170 	time_period 	8
scalar Network700.node170 	number_of_messages 	65
scalar Network700.node170 	discovery_latency 	4116
scalar Network700.node170 	number_of_desired_resources 	20
scalar Network700.node170 	query_homogenity_rate 	33.333333333333
scalar Network700.node170 	qrecord_time 	53150.128413704
scalar Network700.node170 	discovery_resolution_rate 	66.666666666667
scalar Network700.node680 	rate_of_requesters 	1
scalar Network700.node680 	number_of_resources 	38500
scalar Network700.node680 	time_period 	9
scalar Network700.node680 	number_of_messages 	280
scalar Network700.node680 	discovery_latency 	4500
scalar Network700.node680 	number_of_desired_resources 	20
scalar Network700.node680 	query_homogenity_rate 	33.333333333333
scalar Network700.node680 	qrecord_time 	53768.775117062
scalar Network700.node680 	discovery_resolution_rate 	83.333333333333
scalar Network700.node540 	rate_of_requesters 	1
scalar Network700.node540 	number_of_resources 	38500
scalar Network700.node540 	time_period 	10
scalar Network700.node540 	number_of_messages 	10
scalar Network700.node540 	discovery_latency 	4524
scalar Network700.node540 	number_of_desired_resources 	20
scalar Network700.node540 	query_homogenity_rate 	33.333333333333
scalar Network700.node540 	qrecord_time 	53976.209314883
scalar Network700.node540 	discovery_resolution_rate 	33.333333333333
scalar Network700.node590 	rate_of_requesters 	1
scalar Network700.node590 	number_of_resources 	38500
scalar Network700.node590 	time_period 	9
scalar Network700.node590 	number_of_messages 	84
scalar Network700.node590 	discovery_latency 	4116
scalar Network700.node590 	number_of_desired_resources 	20
scalar Network700.node590 	query_homogenity_rate 	33.333333333333
scalar Network700.node590 	qrecord_time 	54243.578783044
scalar Network700.node590 	discovery_resolution_rate 	66.666666666667
scalar Network700.node170 	rate_of_requesters 	1
scalar Network700.node170 	number_of_resources 	38500
scalar Network700.node170 	time_period 	9
scalar Network700.node170 	number_of_messages 	45
scalar Network700.node170 	discovery_latency 	4236
scalar Network700.node170 	number_of_desired_resources 	20
scalar Network700.node170 	query_homogenity_rate 	33.333333333333
scalar Network700.node170 	qrecord_time 	54300.506218134
scalar Network700.node170 	discovery_resolution_rate 	66.666666666667
scalar Network700.node450 	rate_of_requesters 	1
scalar Network700.node450 	number_of_resources 	38500
scalar Network700.node450 	time_period 	10
scalar Network700.node450 	number_of_messages 	18
scalar Network700.node450 	discovery_latency 	4464
scalar Network700.node450 	number_of_desired_resources 	20
scalar Network700.node450 	query_homogenity_rate 	33.333333333333
scalar Network700.node450 	qrecord_time 	54596.405804196
scalar Network700.node450 	discovery_resolution_rate 	33.333333333333
scalar Network700.node30 	rate_of_requesters 	1
scalar Network700.node30 	number_of_resources 	38500
scalar Network700.node30 	time_period 	9
scalar Network700.node30 	number_of_messages 	25
scalar Network700.node30 	discovery_latency 	4560
scalar Network700.node30 	number_of_desired_resources 	20
scalar Network700.node30 	query_homogenity_rate 	33.333333333333
scalar Network700.node30 	qrecord_time 	54797.068886073
scalar Network700.node30 	discovery_resolution_rate 	66.666666666667
scalar Network700.node570 	rate_of_requesters 	1
scalar Network700.node570 	number_of_resources 	38500
scalar Network700.node570 	time_period 	9
scalar Network700.node570 	number_of_messages 	20
scalar Network700.node570 	discovery_latency 	4548
scalar Network700.node570 	number_of_desired_resources 	20
scalar Network700.node570 	query_homogenity_rate 	33.333333333333
scalar Network700.node570 	qrecord_time 	54889.940171188
scalar Network700.node570 	discovery_resolution_rate 	66.666666666667
scalar Network700.node300 	rate_of_requesters 	1
scalar Network700.node300 	number_of_resources 	38500
scalar Network700.node300 	time_period 	9
scalar Network700.node300 	number_of_messages 	26
scalar Network700.node300 	discovery_latency 	180
scalar Network700.node300 	number_of_desired_resources 	20
scalar Network700.node300 	query_homogenity_rate 	33.333333333333
scalar Network700.node300 	qrecord_time 	54965.140318633
scalar Network700.node300 	discovery_resolution_rate 	100
scalar Network700.node300 	rate_of_requesters 	1
scalar Network700.node300 	number_of_resources 	38500
scalar Network700.node300 	time_period 	10
scalar Network700.node300 	number_of_messages 	31
scalar Network700.node300 	discovery_latency 	216
scalar Network700.node300 	number_of_desired_resources 	20
scalar Network700.node300 	query_homogenity_rate 	33.333333333333
scalar Network700.node300 	qrecord_time 	55066.503708549
scalar Network700.node300 	discovery_resolution_rate 	100
scalar Network700.node90 	rate_of_requesters 	1
scalar Network700.node90 	number_of_resources 	38500
scalar Network700.node90 	time_period 	9
scalar Network700.node90 	number_of_messages 	35
scalar Network700.node90 	discovery_latency 	4020
scalar Network700.node90 	number_of_desired_resources 	20
scalar Network700.node90 	query_homogenity_rate 	33.333333333333
scalar Network700.node90 	qrecord_time 	55274.670752525
scalar Network700.node90 	discovery_resolution_rate 	66.666666666667
scalar Network700.node680 	rate_of_requesters 	1
scalar Network700.node680 	number_of_resources 	38500
scalar Network700.node680 	time_period 	10
scalar Network700.node680 	number_of_messages 	231
scalar Network700.node680 	discovery_latency 	4452
scalar Network700.node680 	number_of_desired_resources 	20
scalar Network700.node680 	query_homogenity_rate 	33.333333333333
scalar Network700.node680 	qrecord_time 	55391.757804968
scalar Network700.node680 	discovery_resolution_rate 	50
scalar Network700.node590 	rate_of_requesters 	1
scalar Network700.node590 	number_of_resources 	38500
scalar Network700.node590 	time_period 	10
scalar Network700.node590 	number_of_messages 	67
scalar Network700.node590 	discovery_latency 	4092
scalar Network700.node590 	number_of_desired_resources 	20
scalar Network700.node590 	query_homogenity_rate 	33.333333333333
scalar Network700.node590 	qrecord_time 	55688.501196495
scalar Network700.node590 	discovery_resolution_rate 	66.666666666667
scalar Network700.node490 	rate_of_requesters 	1
scalar Network700.node490 	number_of_resources 	38500
scalar Network700.node490 	time_period 	10
scalar Network700.node490 	number_of_messages 	159
scalar Network700.node490 	discovery_latency 	2460
scalar Network700.node490 	number_of_desired_resources 	20
scalar Network700.node490 	query_homogenity_rate 	33.333333333333
scalar Network700.node490 	qrecord_time 	55852.303210668
scalar Network700.node490 	discovery_resolution_rate 	100
scalar Network700.node60 	rate_of_requesters 	1
scalar Network700.node60 	number_of_resources 	38500
scalar Network700.node60 	time_period 	10
scalar Network700.node60 	number_of_messages 	28
scalar Network700.node60 	discovery_latency 	192
scalar Network700.node60 	number_of_desired_resources 	20
scalar Network700.node60 	query_homogenity_rate 	33.333333333333
scalar Network700.node60 	qrecord_time 	55942.835351083
scalar Network700.node60 	discovery_resolution_rate 	100
scalar Network700.node300 	rate_of_requesters 	1
scalar Network700.node300 	number_of_resources 	38500
scalar Network700.node300 	time_period 	7
scalar Network700.node300 	number_of_messages 	8
scalar Network700.node300 	discovery_latency 	4536
scalar Network700.node300 	number_of_desired_resources 	20
scalar Network700.node300 	query_homogenity_rate 	33.333333333333
scalar Network700.node300 	qrecord_time 	56083.846297629
scalar Network700.node300 	discovery_resolution_rate 	33.333333333333
scalar Network700.node570 	rate_of_requesters 	1
scalar Network700.node570 	number_of_resources 	38500
scalar Network700.node570 	time_period 	10
scalar Network700.node570 	number_of_messages 	41
scalar Network700.node570 	discovery_latency 	324.00000000001
scalar Network700.node570 	number_of_desired_resources 	20
scalar Network700.node570 	query_homogenity_rate 	33.333333333333
scalar Network700.node570 	qrecord_time 	56636.358043317
scalar Network700.node570 	discovery_resolution_rate 	100
scalar Network700.node60 	rate_of_requesters 	1
scalar Network700.node60 	number_of_resources 	38500
scalar Network700.node60 	time_period 	9
scalar Network700.node60 	number_of_messages 	26
scalar Network700.node60 	discovery_latency 	4584
scalar Network700.node60 	number_of_desired_resources 	20
scalar Network700.node60 	query_homogenity_rate 	33.333333333333
scalar Network700.node60 	qrecord_time 	56648.821846697
scalar Network700.node60 	discovery_resolution_rate 	66.666666666667
scalar Network700.node300 	rate_of_requesters 	1
scalar Network700.node300 	number_of_resources 	38500
scalar Network700.node300 	time_period 	8
scalar Network700.node300 	number_of_messages 	11
scalar Network700.node300 	discovery_latency 	4644
scalar Network700.node300 	number_of_desired_resources 	20
scalar Network700.node300 	query_homogenity_rate 	33.333333333333
scalar Network700.node300 	qrecord_time 	56722.639764967
scalar Network700.node300 	discovery_resolution_rate 	33.333333333333
scalar Network700.node370 	rate_of_requesters 	1
scalar Network700.node370 	number_of_resources 	38500
scalar Network700.node370 	time_period 	8
scalar Network700.node370 	number_of_messages 	236
scalar Network700.node370 	discovery_latency 	4464
scalar Network700.node370 	number_of_desired_resources 	20
scalar Network700.node370 	query_homogenity_rate 	33.333333333333
scalar Network700.node370 	qrecord_time 	56817.914458301
scalar Network700.node370 	discovery_resolution_rate 	50
scalar Network700.node510 	rate_of_requesters 	1
scalar Network700.node510 	number_of_resources 	38500
scalar Network700.node510 	time_period 	10
scalar Network700.node510 	number_of_messages 	67
scalar Network700.node510 	discovery_latency 	4116
scalar Network700.node510 	number_of_desired_resources 	20
scalar Network700.node510 	query_homogenity_rate 	33.333333333333
scalar Network700.node510 	qrecord_time 	56924.633981794
scalar Network700.node510 	discovery_resolution_rate 	66.666666666667
scalar Network700.node370 	rate_of_requesters 	1
scalar Network700.node370 	number_of_resources 	38500
scalar Network700.node370 	time_period 	9
scalar Network700.node370 	number_of_messages 	17
scalar Network700.node370 	discovery_latency 	156
scalar Network700.node370 	number_of_desired_resources 	20
scalar Network700.node370 	query_homogenity_rate 	33.333333333333
scalar Network700.node370 	qrecord_time 	57008.84291795
scalar Network700.node370 	discovery_resolution_rate 	100
scalar Network700.node490 	rate_of_requesters 	1
scalar Network700.node490 	number_of_resources 	38500
scalar Network700.node490 	time_period 	9
scalar Network700.node490 	number_of_messages 	230
scalar Network700.node490 	discovery_latency 	4668
scalar Network700.node490 	number_of_desired_resources 	20
scalar Network700.node490 	query_homogenity_rate 	33.333333333333
scalar Network700.node490 	qrecord_time 	57823.81796094
scalar Network700.node490 	discovery_resolution_rate 	50
scalar Network700.node90 	rate_of_requesters 	1
scalar Network700.node90 	number_of_resources 	38500
scalar Network700.node90 	time_period 	10
scalar Network700.node90 	number_of_messages 	34
scalar Network700.node90 	discovery_latency 	192
scalar Network700.node90 	number_of_desired_resources 	20
scalar Network700.node90 	query_homogenity_rate 	33.333333333333
scalar Network700.node90 	qrecord_time 	58237.290828518
scalar Network700.node90 	discovery_resolution_rate 	100
scalar Network700.node170 	rate_of_requesters 	1
scalar Network700.node170 	number_of_resources 	38500
scalar Network700.node170 	time_period 	10
scalar Network700.node170 	number_of_messages 	33
scalar Network700.node170 	discovery_latency 	216
scalar Network700.node170 	number_of_desired_resources 	20
scalar Network700.node170 	query_homogenity_rate 	33.333333333333
scalar Network700.node170 	qrecord_time 	59367.433750604
scalar Network700.node170 	discovery_resolution_rate 	100
scalar Network700.node520 	rate_of_requesters 	1
scalar Network700.node520 	number_of_resources 	38500
scalar Network700.node520 	time_period 	8
scalar Network700.node520 	number_of_messages 	32
scalar Network700.node520 	discovery_latency 	228
scalar Network700.node520 	number_of_desired_resources 	20
scalar Network700.node520 	query_homogenity_rate 	33.333333333333
scalar Network700.node520 	qrecord_time 	59864.206021426
scalar Network700.node520 	discovery_resolution_rate 	100
scalar Network700.node520 	rate_of_requesters 	1
scalar Network700.node520 	number_of_resources 	38500
scalar Network700.node520 	time_period 	7
scalar Network700.node520 	number_of_messages 	20
scalar Network700.node520 	discovery_latency 	4116
scalar Network700.node520 	number_of_desired_resources 	20
scalar Network700.node520 	query_homogenity_rate 	33.333333333333
scalar Network700.node520 	qrecord_time 	61319.060689779
scalar Network700.node520 	discovery_resolution_rate 	66.666666666667
scalar Network700.node370 	rate_of_requesters 	1
scalar Network700.node370 	number_of_resources 	38500
scalar Network700.node370 	time_period 	10
scalar Network700.node370 	number_of_messages 	16
scalar Network700.node370 	discovery_latency 	4176
scalar Network700.node370 	number_of_desired_resources 	20
scalar Network700.node370 	query_homogenity_rate 	33.333333333333
scalar Network700.node370 	qrecord_time 	61399.062256029
scalar Network700.node370 	discovery_resolution_rate 	66.666666666667
scalar Network700.node250 	rate_of_requesters 	1
scalar Network700.node250 	number_of_resources 	38500
scalar Network700.node250 	time_period 	10
scalar Network700.node250 	number_of_messages 	23
scalar Network700.node250 	discovery_latency 	156
scalar Network700.node250 	number_of_desired_resources 	20
scalar Network700.node250 	query_homogenity_rate 	33.333333333333
scalar Network700.node250 	qrecord_time 	62662.805299291
scalar Network700.node250 	discovery_resolution_rate 	100
scalar Network700.node280 	rate_of_requesters 	1
scalar Network700.node280 	number_of_resources 	38500
scalar Network700.node280 	time_period 	10
scalar Network700.node280 	number_of_messages 	26
scalar Network700.node280 	discovery_latency 	167.99999999999
scalar Network700.node280 	number_of_desired_resources 	20
scalar Network700.node280 	query_homogenity_rate 	33.333333333333
scalar Network700.node280 	qrecord_time 	64109.954181862
scalar Network700.node280 	discovery_resolution_rate 	100
scalar Network700.node30 	rate_of_requesters 	1
scalar Network700.node30 	number_of_resources 	38500
scalar Network700.node30 	time_period 	10
scalar Network700.node30 	number_of_messages 	23
scalar Network700.node30 	discovery_latency 	168.00000000001
scalar Network700.node30 	number_of_desired_resources 	20
scalar Network700.node30 	query_homogenity_rate 	33.333333333333
scalar Network700.node30 	qrecord_time 	66957.257757408
scalar Network700.node30 	discovery_resolution_rate 	100
scalar Network700.node520 	rate_of_requesters 	1
scalar Network700.node520 	number_of_resources 	38500
scalar Network700.node520 	time_period 	9
scalar Network700.node520 	number_of_messages 	23
scalar Network700.node520 	discovery_latency 	168.00000000001
scalar Network700.node520 	number_of_desired_resources 	20
scalar Network700.node520 	query_homogenity_rate 	33.333333333333
scalar Network700.node520 	qrecord_time 	70583.815055265
scalar Network700.node520 	discovery_resolution_rate 	100
scalar Network700.node520 	rate_of_requesters 	1
scalar Network700.node520 	number_of_resources 	38500
scalar Network700.node520 	time_period 	10
scalar Network700.node520 	number_of_messages 	23
scalar Network700.node520 	discovery_latency 	167.99999999999
scalar Network700.node520 	number_of_desired_resources 	20
scalar Network700.node520 	query_homogenity_rate 	33.333333333333
scalar Network700.node520 	qrecord_time 	71235.813719886
scalar Network700.node520 	discovery_resolution_rate 	100
