version 2
run net800-2-20150717-04:20:14-2802
attr as 1
attr configname net800
attr datetime 20150717-04:20:14
attr dnor 20
attr experiment net800
attr inifile omnetpp.ini
attr iterationvars "$rhdrq=3, $dnor=20, $as=1"
attr iterationvars2 "$rhdrq=3, $dnor=20, $as=1, $repetition=2"
attr measurement "$rhdrq=3, $dnor=20, $as=1"
attr network Network800
attr processid 2802
attr repetition 2
attr replication #2
attr resultdir results
attr rhdrq 3
attr runnumber 2
attr seedset 2

scalar . 	as 	1
scalar . 	dnor 	20
scalar . 	rhdrq 	3
scalar Network800.node700 	rate_of_requesters 	1
scalar Network800.node700 	number_of_resources 	44000
scalar Network800.node700 	time_period 	1
scalar Network800.node700 	number_of_messages 	15
scalar Network800.node700 	discovery_latency 	4080
scalar Network800.node700 	number_of_desired_resources 	20
scalar Network800.node700 	query_homogenity_rate 	33.333333333333
scalar Network800.node700 	qrecord_time 	8794
scalar Network800.node700 	discovery_resolution_rate 	33.333333333333
scalar Network800.node390 	rate_of_requesters 	1
scalar Network800.node390 	number_of_resources 	44000
scalar Network800.node390 	time_period 	1
scalar Network800.node390 	number_of_messages 	14
scalar Network800.node390 	discovery_latency 	4152
scalar Network800.node390 	number_of_desired_resources 	20
scalar Network800.node390 	query_homogenity_rate 	33.333333333333
scalar Network800.node390 	qrecord_time 	8818
scalar Network800.node390 	discovery_resolution_rate 	33.333333333333
scalar Network800.node680 	rate_of_requesters 	1
scalar Network800.node680 	number_of_resources 	44000
scalar Network800.node680 	time_period 	1
scalar Network800.node680 	number_of_messages 	23
scalar Network800.node680 	discovery_latency 	3936
scalar Network800.node680 	number_of_desired_resources 	20
scalar Network800.node680 	query_homogenity_rate 	33.333333333333
scalar Network800.node680 	qrecord_time 	8818
scalar Network800.node680 	discovery_resolution_rate 	66.666666666667
scalar Network800.node590 	rate_of_requesters 	1
scalar Network800.node590 	number_of_resources 	44000
scalar Network800.node590 	time_period 	1
scalar Network800.node590 	number_of_messages 	5
scalar Network800.node590 	discovery_latency 	4092
scalar Network800.node590 	number_of_desired_resources 	20
scalar Network800.node590 	query_homogenity_rate 	33.333333333333
scalar Network800.node590 	qrecord_time 	8830
scalar Network800.node590 	discovery_resolution_rate 	33.333333333333
scalar Network800.node400 	rate_of_requesters 	1
scalar Network800.node400 	number_of_resources 	44000
scalar Network800.node400 	time_period 	1
scalar Network800.node400 	number_of_messages 	13
scalar Network800.node400 	discovery_latency 	4140
scalar Network800.node400 	number_of_desired_resources 	20
scalar Network800.node400 	query_homogenity_rate 	33.333333333333
scalar Network800.node400 	qrecord_time 	8848
scalar Network800.node400 	discovery_resolution_rate 	66.666666666667
scalar Network800.node250 	rate_of_requesters 	1
scalar Network800.node250 	number_of_resources 	44000
scalar Network800.node250 	time_period 	1
scalar Network800.node250 	number_of_messages 	4
scalar Network800.node250 	discovery_latency 	4164
scalar Network800.node250 	number_of_desired_resources 	20
scalar Network800.node250 	query_homogenity_rate 	33.333333333333
scalar Network800.node250 	qrecord_time 	8854
scalar Network800.node250 	discovery_resolution_rate 	33.333333333333
scalar Network800.node560 	rate_of_requesters 	1
scalar Network800.node560 	number_of_resources 	44000
scalar Network800.node560 	time_period 	1
scalar Network800.node560 	number_of_messages 	27
scalar Network800.node560 	discovery_latency 	4188
scalar Network800.node560 	number_of_desired_resources 	20
scalar Network800.node560 	query_homogenity_rate 	33.333333333333
scalar Network800.node560 	qrecord_time 	8860
scalar Network800.node560 	discovery_resolution_rate 	33.333333333333
scalar Network800.node750 	rate_of_requesters 	1
scalar Network800.node750 	number_of_resources 	44000
scalar Network800.node750 	time_period 	1
scalar Network800.node750 	number_of_messages 	68
scalar Network800.node750 	discovery_latency 	4104
scalar Network800.node750 	number_of_desired_resources 	20
scalar Network800.node750 	query_homogenity_rate 	33.333333333333
scalar Network800.node750 	qrecord_time 	8872
scalar Network800.node750 	discovery_resolution_rate 	33.333333333333
scalar Network800.node160 	rate_of_requesters 	1
scalar Network800.node160 	number_of_resources 	44000
scalar Network800.node160 	time_period 	1
scalar Network800.node160 	number_of_messages 	9
scalar Network800.node160 	discovery_latency 	4176
scalar Network800.node160 	number_of_desired_resources 	20
scalar Network800.node160 	query_homogenity_rate 	33.333333333333
scalar Network800.node160 	qrecord_time 	8890
scalar Network800.node160 	discovery_resolution_rate 	33.333333333333
scalar Network800.node130 	rate_of_requesters 	1
scalar Network800.node130 	number_of_resources 	44000
scalar Network800.node130 	time_period 	1
scalar Network800.node130 	number_of_messages 	5
scalar Network800.node130 	discovery_latency 	4212
scalar Network800.node130 	number_of_desired_resources 	20
scalar Network800.node130 	query_homogenity_rate 	33.333333333333
scalar Network800.node130 	qrecord_time 	8902
scalar Network800.node130 	discovery_resolution_rate 	33.333333333333
scalar Network800.node710 	rate_of_requesters 	1
scalar Network800.node710 	number_of_resources 	44000
scalar Network800.node710 	time_period 	1
scalar Network800.node710 	number_of_messages 	11
scalar Network800.node710 	discovery_latency 	4260
scalar Network800.node710 	number_of_desired_resources 	20
scalar Network800.node710 	query_homogenity_rate 	33.333333333333
scalar Network800.node710 	qrecord_time 	8902
scalar Network800.node710 	discovery_resolution_rate 	33.333333333333
scalar Network800.node60 	rate_of_requesters 	1
scalar Network800.node60 	number_of_resources 	44000
scalar Network800.node60 	time_period 	1
scalar Network800.node60 	number_of_messages 	23
scalar Network800.node60 	discovery_latency 	4188
scalar Network800.node60 	number_of_desired_resources 	20
scalar Network800.node60 	query_homogenity_rate 	33.333333333333
scalar Network800.node60 	qrecord_time 	8902
scalar Network800.node60 	discovery_resolution_rate 	33.333333333333
scalar Network800.node40 	rate_of_requesters 	1
scalar Network800.node40 	number_of_resources 	44000
scalar Network800.node40 	time_period 	1
scalar Network800.node40 	number_of_messages 	13
scalar Network800.node40 	discovery_latency 	4200
scalar Network800.node40 	number_of_desired_resources 	20
scalar Network800.node40 	query_homogenity_rate 	33.333333333333
scalar Network800.node40 	qrecord_time 	8914
scalar Network800.node40 	discovery_resolution_rate 	33.333333333333
scalar Network800.node310 	rate_of_requesters 	1
scalar Network800.node310 	number_of_resources 	44000
scalar Network800.node310 	time_period 	1
scalar Network800.node310 	number_of_messages 	11
scalar Network800.node310 	discovery_latency 	4200
scalar Network800.node310 	number_of_desired_resources 	20
scalar Network800.node310 	query_homogenity_rate 	33.333333333333
scalar Network800.node310 	qrecord_time 	8914
scalar Network800.node310 	discovery_resolution_rate 	33.333333333333
scalar Network800.node300 	rate_of_requesters 	1
scalar Network800.node300 	number_of_resources 	44000
scalar Network800.node300 	time_period 	1
scalar Network800.node300 	number_of_messages 	11
scalar Network800.node300 	discovery_latency 	4260
scalar Network800.node300 	number_of_desired_resources 	20
scalar Network800.node300 	query_homogenity_rate 	33.333333333333
scalar Network800.node300 	qrecord_time 	8926
scalar Network800.node300 	discovery_resolution_rate 	33.333333333333
scalar Network800.node170 	rate_of_requesters 	1
scalar Network800.node170 	number_of_resources 	44000
scalar Network800.node170 	time_period 	1
scalar Network800.node170 	number_of_messages 	8
scalar Network800.node170 	discovery_latency 	4260
scalar Network800.node170 	number_of_desired_resources 	20
scalar Network800.node170 	query_homogenity_rate 	33.333333333333
scalar Network800.node170 	qrecord_time 	8926
scalar Network800.node170 	discovery_resolution_rate 	33.333333333333
scalar Network800.node150 	rate_of_requesters 	1
scalar Network800.node150 	number_of_resources 	44000
scalar Network800.node150 	time_period 	1
scalar Network800.node150 	number_of_messages 	14
scalar Network800.node150 	discovery_latency 	4200
scalar Network800.node150 	number_of_desired_resources 	20
scalar Network800.node150 	query_homogenity_rate 	33.333333333333
scalar Network800.node150 	qrecord_time 	8932
scalar Network800.node150 	discovery_resolution_rate 	66.666666666667
scalar Network800.node220 	rate_of_requesters 	1
scalar Network800.node220 	number_of_resources 	44000
scalar Network800.node220 	time_period 	1
scalar Network800.node220 	number_of_messages 	28
scalar Network800.node220 	discovery_latency 	4224
scalar Network800.node220 	number_of_desired_resources 	20
scalar Network800.node220 	query_homogenity_rate 	33.333333333333
scalar Network800.node220 	qrecord_time 	8938
scalar Network800.node220 	discovery_resolution_rate 	66.666666666667
scalar Network800.node110 	rate_of_requesters 	1
scalar Network800.node110 	number_of_resources 	44000
scalar Network800.node110 	time_period 	1
scalar Network800.node110 	number_of_messages 	26
scalar Network800.node110 	discovery_latency 	4200
scalar Network800.node110 	number_of_desired_resources 	20
scalar Network800.node110 	query_homogenity_rate 	33.333333333333
scalar Network800.node110 	qrecord_time 	8938
scalar Network800.node110 	discovery_resolution_rate 	33.333333333333
scalar Network800.node520 	rate_of_requesters 	1
scalar Network800.node520 	number_of_resources 	44000
scalar Network800.node520 	time_period 	1
scalar Network800.node520 	number_of_messages 	92
scalar Network800.node520 	discovery_latency 	4224
scalar Network800.node520 	number_of_desired_resources 	20
scalar Network800.node520 	query_homogenity_rate 	33.333333333333
scalar Network800.node520 	qrecord_time 	8944
scalar Network800.node520 	discovery_resolution_rate 	33.333333333333
scalar Network800.node650 	rate_of_requesters 	1
scalar Network800.node650 	number_of_resources 	44000
scalar Network800.node650 	time_period 	1
scalar Network800.node650 	number_of_messages 	9
scalar Network800.node650 	discovery_latency 	4200
scalar Network800.node650 	number_of_desired_resources 	20
scalar Network800.node650 	query_homogenity_rate 	33.333333333333
scalar Network800.node650 	qrecord_time 	8950
scalar Network800.node650 	discovery_resolution_rate 	33.333333333333
scalar Network800.node740 	rate_of_requesters 	1
scalar Network800.node740 	number_of_resources 	44000
scalar Network800.node740 	time_period 	1
scalar Network800.node740 	number_of_messages 	12
scalar Network800.node740 	discovery_latency 	4272
scalar Network800.node740 	number_of_desired_resources 	20
scalar Network800.node740 	query_homogenity_rate 	33.333333333333
scalar Network800.node740 	qrecord_time 	8956
scalar Network800.node740 	discovery_resolution_rate 	66.666666666667
scalar Network800.node610 	rate_of_requesters 	1
scalar Network800.node610 	number_of_resources 	44000
scalar Network800.node610 	time_period 	1
scalar Network800.node610 	number_of_messages 	19
scalar Network800.node610 	discovery_latency 	4308
scalar Network800.node610 	number_of_desired_resources 	20
scalar Network800.node610 	query_homogenity_rate 	33.333333333333
scalar Network800.node610 	qrecord_time 	8956
scalar Network800.node610 	discovery_resolution_rate 	33.333333333333
scalar Network800.node70 	rate_of_requesters 	1
scalar Network800.node70 	number_of_resources 	44000
scalar Network800.node70 	time_period 	1
scalar Network800.node70 	number_of_messages 	15
scalar Network800.node70 	discovery_latency 	4248
scalar Network800.node70 	number_of_desired_resources 	20
scalar Network800.node70 	query_homogenity_rate 	33.333333333333
scalar Network800.node70 	qrecord_time 	8962
scalar Network800.node70 	discovery_resolution_rate 	33.333333333333
scalar Network800.node430 	rate_of_requesters 	1
scalar Network800.node430 	number_of_resources 	44000
scalar Network800.node430 	time_period 	1
scalar Network800.node430 	number_of_messages 	25
scalar Network800.node430 	discovery_latency 	4212
scalar Network800.node430 	number_of_desired_resources 	20
scalar Network800.node430 	query_homogenity_rate 	33.333333333333
scalar Network800.node430 	qrecord_time 	8968
scalar Network800.node430 	discovery_resolution_rate 	66.666666666667
scalar Network800.node350 	rate_of_requesters 	1
scalar Network800.node350 	number_of_resources 	44000
scalar Network800.node350 	time_period 	1
scalar Network800.node350 	number_of_messages 	10
scalar Network800.node350 	discovery_latency 	4236
scalar Network800.node350 	number_of_desired_resources 	20
scalar Network800.node350 	query_homogenity_rate 	33.333333333333
scalar Network800.node350 	qrecord_time 	8968
scalar Network800.node350 	discovery_resolution_rate 	33.333333333333
scalar Network800.node730 	rate_of_requesters 	1
scalar Network800.node730 	number_of_resources 	44000
scalar Network800.node730 	time_period 	1
scalar Network800.node730 	number_of_messages 	7
scalar Network800.node730 	discovery_latency 	4296
scalar Network800.node730 	number_of_desired_resources 	20
scalar Network800.node730 	query_homogenity_rate 	33.333333333333
scalar Network800.node730 	qrecord_time 	8980
scalar Network800.node730 	discovery_resolution_rate 	33.333333333333
scalar Network800.node180 	rate_of_requesters 	1
scalar Network800.node180 	number_of_resources 	44000
scalar Network800.node180 	time_period 	1
scalar Network800.node180 	number_of_messages 	88
scalar Network800.node180 	discovery_latency 	4248
scalar Network800.node180 	number_of_desired_resources 	20
scalar Network800.node180 	query_homogenity_rate 	33.333333333333
scalar Network800.node180 	qrecord_time 	8986
scalar Network800.node180 	discovery_resolution_rate 	33.333333333333
scalar Network800.node280 	rate_of_requesters 	1
scalar Network800.node280 	number_of_resources 	44000
scalar Network800.node280 	time_period 	1
scalar Network800.node280 	number_of_messages 	9
scalar Network800.node280 	discovery_latency 	4308
scalar Network800.node280 	number_of_desired_resources 	20
scalar Network800.node280 	query_homogenity_rate 	33.333333333333
scalar Network800.node280 	qrecord_time 	9004
scalar Network800.node280 	discovery_resolution_rate 	33.333333333333
scalar Network800.node90 	rate_of_requesters 	1
scalar Network800.node90 	number_of_resources 	44000
scalar Network800.node90 	time_period 	1
scalar Network800.node90 	number_of_messages 	4
scalar Network800.node90 	discovery_latency 	4320
scalar Network800.node90 	number_of_desired_resources 	20
scalar Network800.node90 	query_homogenity_rate 	33.333333333333
scalar Network800.node90 	qrecord_time 	9010
scalar Network800.node90 	discovery_resolution_rate 	33.333333333333
scalar Network800.node240 	rate_of_requesters 	1
scalar Network800.node240 	number_of_resources 	44000
scalar Network800.node240 	time_period 	1
scalar Network800.node240 	number_of_messages 	9
scalar Network800.node240 	discovery_latency 	4296
scalar Network800.node240 	number_of_desired_resources 	20
scalar Network800.node240 	query_homogenity_rate 	33.333333333333
scalar Network800.node240 	qrecord_time 	9010
scalar Network800.node240 	discovery_resolution_rate 	33.333333333333
scalar Network800.node200 	rate_of_requesters 	1
scalar Network800.node200 	number_of_resources 	44000
scalar Network800.node200 	time_period 	1
scalar Network800.node200 	number_of_messages 	6
scalar Network800.node200 	discovery_latency 	4248
scalar Network800.node200 	number_of_desired_resources 	20
scalar Network800.node200 	query_homogenity_rate 	33.333333333333
scalar Network800.node200 	qrecord_time 	9016
scalar Network800.node200 	discovery_resolution_rate 	33.333333333333
scalar Network800.node450 	rate_of_requesters 	1
scalar Network800.node450 	number_of_resources 	44000
scalar Network800.node450 	time_period 	1
scalar Network800.node450 	number_of_messages 	69
scalar Network800.node450 	discovery_latency 	4224
scalar Network800.node450 	number_of_desired_resources 	20
scalar Network800.node450 	query_homogenity_rate 	33.333333333333
scalar Network800.node450 	qrecord_time 	9022
scalar Network800.node450 	discovery_resolution_rate 	33.333333333333
scalar Network800.node410 	rate_of_requesters 	1
scalar Network800.node410 	number_of_resources 	44000
scalar Network800.node410 	time_period 	1
scalar Network800.node410 	number_of_messages 	14
scalar Network800.node410 	discovery_latency 	4104
scalar Network800.node410 	number_of_desired_resources 	20
scalar Network800.node410 	query_homogenity_rate 	33.333333333333
scalar Network800.node410 	qrecord_time 	9022
scalar Network800.node410 	discovery_resolution_rate 	33.333333333333
scalar Network800.node120 	rate_of_requesters 	1
scalar Network800.node120 	number_of_resources 	44000
scalar Network800.node120 	time_period 	1
scalar Network800.node120 	number_of_messages 	73
scalar Network800.node120 	discovery_latency 	4260
scalar Network800.node120 	number_of_desired_resources 	20
scalar Network800.node120 	query_homogenity_rate 	33.333333333333
scalar Network800.node120 	qrecord_time 	9028
scalar Network800.node120 	discovery_resolution_rate 	33.333333333333
scalar Network800.node660 	rate_of_requesters 	1
scalar Network800.node660 	number_of_resources 	44000
scalar Network800.node660 	time_period 	1
scalar Network800.node660 	number_of_messages 	17
scalar Network800.node660 	discovery_latency 	4308
scalar Network800.node660 	number_of_desired_resources 	20
scalar Network800.node660 	query_homogenity_rate 	33.333333333333
scalar Network800.node660 	qrecord_time 	9034
scalar Network800.node660 	discovery_resolution_rate 	66.666666666667
scalar Network800.node100 	rate_of_requesters 	1
scalar Network800.node100 	number_of_resources 	44000
scalar Network800.node100 	time_period 	1
scalar Network800.node100 	number_of_messages 	94
scalar Network800.node100 	discovery_latency 	4296
scalar Network800.node100 	number_of_desired_resources 	20
scalar Network800.node100 	query_homogenity_rate 	33.333333333333
scalar Network800.node100 	qrecord_time 	9040
scalar Network800.node100 	discovery_resolution_rate 	66.666666666667
scalar Network800.node360 	rate_of_requesters 	1
scalar Network800.node360 	number_of_resources 	44000
scalar Network800.node360 	time_period 	1
scalar Network800.node360 	number_of_messages 	5
scalar Network800.node360 	discovery_latency 	4320
scalar Network800.node360 	number_of_desired_resources 	20
scalar Network800.node360 	query_homogenity_rate 	33.333333333333
scalar Network800.node360 	qrecord_time 	9052
scalar Network800.node360 	discovery_resolution_rate 	33.333333333333
scalar Network800.node260 	rate_of_requesters 	1
scalar Network800.node260 	number_of_resources 	44000
scalar Network800.node260 	time_period 	1
scalar Network800.node260 	number_of_messages 	9
scalar Network800.node260 	discovery_latency 	4320
scalar Network800.node260 	number_of_desired_resources 	20
scalar Network800.node260 	query_homogenity_rate 	33.333333333333
scalar Network800.node260 	qrecord_time 	9052
scalar Network800.node260 	discovery_resolution_rate 	33.333333333333
scalar Network800.node470 	rate_of_requesters 	1
scalar Network800.node470 	number_of_resources 	44000
scalar Network800.node470 	time_period 	1
scalar Network800.node470 	number_of_messages 	11
scalar Network800.node470 	discovery_latency 	4236
scalar Network800.node470 	number_of_desired_resources 	20
scalar Network800.node470 	query_homogenity_rate 	33.333333333333
scalar Network800.node470 	qrecord_time 	9052
scalar Network800.node470 	discovery_resolution_rate 	33.333333333333
scalar Network800.node440 	rate_of_requesters 	1
scalar Network800.node440 	number_of_resources 	44000
scalar Network800.node440 	time_period 	1
scalar Network800.node440 	number_of_messages 	6
scalar Network800.node440 	discovery_latency 	4284
scalar Network800.node440 	number_of_desired_resources 	20
scalar Network800.node440 	query_homogenity_rate 	33.333333333333
scalar Network800.node440 	qrecord_time 	9058
scalar Network800.node440 	discovery_resolution_rate 	33.333333333333
scalar Network800.node690 	rate_of_requesters 	1
scalar Network800.node690 	number_of_resources 	44000
scalar Network800.node690 	time_period 	1
scalar Network800.node690 	number_of_messages 	20
scalar Network800.node690 	discovery_latency 	4332
scalar Network800.node690 	number_of_desired_resources 	20
scalar Network800.node690 	query_homogenity_rate 	33.333333333333
scalar Network800.node690 	qrecord_time 	9058
scalar Network800.node690 	discovery_resolution_rate 	33.333333333333
scalar Network800.node740 	rate_of_requesters 	1
scalar Network800.node740 	number_of_resources 	44000
scalar Network800.node740 	time_period 	2
scalar Network800.node740 	number_of_messages 	15
scalar Network800.node740 	discovery_latency 	4296
scalar Network800.node740 	number_of_desired_resources 	20
scalar Network800.node740 	query_homogenity_rate 	33.333333333333
scalar Network800.node740 	qrecord_time 	9074.311562403
scalar Network800.node740 	discovery_resolution_rate 	66.666666666667
scalar Network800.node30 	rate_of_requesters 	1
scalar Network800.node30 	number_of_resources 	44000
scalar Network800.node30 	time_period 	1
scalar Network800.node30 	number_of_messages 	5
scalar Network800.node30 	discovery_latency 	4356
scalar Network800.node30 	number_of_desired_resources 	20
scalar Network800.node30 	query_homogenity_rate 	33.333333333333
scalar Network800.node30 	qrecord_time 	9082
scalar Network800.node30 	discovery_resolution_rate 	33.333333333333
scalar Network800.node580 	rate_of_requesters 	1
scalar Network800.node580 	number_of_resources 	44000
scalar Network800.node580 	time_period 	1
scalar Network800.node580 	number_of_messages 	8
scalar Network800.node580 	discovery_latency 	4380
scalar Network800.node580 	number_of_desired_resources 	20
scalar Network800.node580 	query_homogenity_rate 	33.333333333333
scalar Network800.node580 	qrecord_time 	9088
scalar Network800.node580 	discovery_resolution_rate 	33.333333333333
scalar Network800.node530 	rate_of_requesters 	1
scalar Network800.node530 	number_of_resources 	44000
scalar Network800.node530 	time_period 	1
scalar Network800.node530 	number_of_messages 	86
scalar Network800.node530 	discovery_latency 	4344
scalar Network800.node530 	number_of_desired_resources 	20
scalar Network800.node530 	query_homogenity_rate 	33.333333333333
scalar Network800.node530 	qrecord_time 	9094
scalar Network800.node530 	discovery_resolution_rate 	33.333333333333
scalar Network800.node510 	rate_of_requesters 	1
scalar Network800.node510 	number_of_resources 	44000
scalar Network800.node510 	time_period 	1
scalar Network800.node510 	number_of_messages 	7
scalar Network800.node510 	discovery_latency 	4332
scalar Network800.node510 	number_of_desired_resources 	20
scalar Network800.node510 	query_homogenity_rate 	33.333333333333
scalar Network800.node510 	qrecord_time 	9100
scalar Network800.node510 	discovery_resolution_rate 	33.333333333333
scalar Network800.node270 	rate_of_requesters 	1
scalar Network800.node270 	number_of_resources 	44000
scalar Network800.node270 	time_period 	1
scalar Network800.node270 	number_of_messages 	22
scalar Network800.node270 	discovery_latency 	4368
scalar Network800.node270 	number_of_desired_resources 	20
scalar Network800.node270 	query_homogenity_rate 	33.333333333333
scalar Network800.node270 	qrecord_time 	9100
scalar Network800.node270 	discovery_resolution_rate 	33.333333333333
scalar Network800.node720 	rate_of_requesters 	1
scalar Network800.node720 	number_of_resources 	44000
scalar Network800.node720 	time_period 	1
scalar Network800.node720 	number_of_messages 	83
scalar Network800.node720 	discovery_latency 	4356
scalar Network800.node720 	number_of_desired_resources 	20
scalar Network800.node720 	query_homogenity_rate 	33.333333333333
scalar Network800.node720 	qrecord_time 	9106
scalar Network800.node720 	discovery_resolution_rate 	33.333333333333
scalar Network800.node490 	rate_of_requesters 	1
scalar Network800.node490 	number_of_resources 	44000
scalar Network800.node490 	time_period 	1
scalar Network800.node490 	number_of_messages 	70
scalar Network800.node490 	discovery_latency 	4236
scalar Network800.node490 	number_of_desired_resources 	20
scalar Network800.node490 	query_homogenity_rate 	33.333333333333
scalar Network800.node490 	qrecord_time 	9112
scalar Network800.node490 	discovery_resolution_rate 	33.333333333333
scalar Network800.node540 	rate_of_requesters 	1
scalar Network800.node540 	number_of_resources 	44000
scalar Network800.node540 	time_period 	1
scalar Network800.node540 	number_of_messages 	207
scalar Network800.node540 	discovery_latency 	4404
scalar Network800.node540 	number_of_desired_resources 	20
scalar Network800.node540 	query_homogenity_rate 	33.333333333333
scalar Network800.node540 	qrecord_time 	9112
scalar Network800.node540 	discovery_resolution_rate 	33.333333333333
scalar Network800.node540 	rate_of_requesters 	1
scalar Network800.node540 	number_of_resources 	44000
scalar Network800.node540 	time_period 	2
scalar Network800.node540 	number_of_messages 	62
scalar Network800.node540 	discovery_latency 	4212
scalar Network800.node540 	number_of_desired_resources 	20
scalar Network800.node540 	query_homogenity_rate 	33.333333333333
scalar Network800.node540 	qrecord_time 	9117.867079137
scalar Network800.node540 	discovery_resolution_rate 	33.333333333333
scalar Network800.node320 	rate_of_requesters 	1
scalar Network800.node320 	number_of_resources 	44000
scalar Network800.node320 	time_period 	1
scalar Network800.node320 	number_of_messages 	9
scalar Network800.node320 	discovery_latency 	4416
scalar Network800.node320 	number_of_desired_resources 	20
scalar Network800.node320 	query_homogenity_rate 	33.333333333333
scalar Network800.node320 	qrecord_time 	9130
scalar Network800.node320 	discovery_resolution_rate 	33.333333333333
scalar Network800.node620 	rate_of_requesters 	1
scalar Network800.node620 	number_of_resources 	44000
scalar Network800.node620 	time_period 	1
scalar Network800.node620 	number_of_messages 	202
scalar Network800.node620 	discovery_latency 	4380
scalar Network800.node620 	number_of_desired_resources 	20
scalar Network800.node620 	query_homogenity_rate 	33.333333333333
scalar Network800.node620 	qrecord_time 	9136
scalar Network800.node620 	discovery_resolution_rate 	50
scalar Network800.node210 	rate_of_requesters 	1
scalar Network800.node210 	number_of_resources 	44000
scalar Network800.node210 	time_period 	1
scalar Network800.node210 	number_of_messages 	6
scalar Network800.node210 	discovery_latency 	4368
scalar Network800.node210 	number_of_desired_resources 	20
scalar Network800.node210 	query_homogenity_rate 	33.333333333333
scalar Network800.node210 	qrecord_time 	9142
scalar Network800.node210 	discovery_resolution_rate 	33.333333333333
scalar Network800.node380 	rate_of_requesters 	1
scalar Network800.node380 	number_of_resources 	44000
scalar Network800.node380 	time_period 	1
scalar Network800.node380 	number_of_messages 	10
scalar Network800.node380 	discovery_latency 	4428
scalar Network800.node380 	number_of_desired_resources 	20
scalar Network800.node380 	query_homogenity_rate 	33.333333333333
scalar Network800.node380 	qrecord_time 	9160
scalar Network800.node380 	discovery_resolution_rate 	33.333333333333
scalar Network800.node190 	rate_of_requesters 	1
scalar Network800.node190 	number_of_resources 	44000
scalar Network800.node190 	time_period 	1
scalar Network800.node190 	number_of_messages 	6
scalar Network800.node190 	discovery_latency 	4428
scalar Network800.node190 	number_of_desired_resources 	20
scalar Network800.node190 	query_homogenity_rate 	33.333333333333
scalar Network800.node190 	qrecord_time 	9178
scalar Network800.node190 	discovery_resolution_rate 	33.333333333333
scalar Network800.node550 	rate_of_requesters 	1
scalar Network800.node550 	number_of_resources 	44000
scalar Network800.node550 	time_period 	1
scalar Network800.node550 	number_of_messages 	90
scalar Network800.node550 	discovery_latency 	4440
scalar Network800.node550 	number_of_desired_resources 	20
scalar Network800.node550 	query_homogenity_rate 	33.333333333333
scalar Network800.node550 	qrecord_time 	9178
scalar Network800.node550 	discovery_resolution_rate 	33.333333333333
scalar Network800.node770 	rate_of_requesters 	1
scalar Network800.node770 	number_of_resources 	44000
scalar Network800.node770 	time_period 	1
scalar Network800.node770 	number_of_messages 	72
scalar Network800.node770 	discovery_latency 	4308
scalar Network800.node770 	number_of_desired_resources 	20
scalar Network800.node770 	query_homogenity_rate 	33.333333333333
scalar Network800.node770 	qrecord_time 	9202
scalar Network800.node770 	discovery_resolution_rate 	33.333333333333
scalar Network800.node230 	rate_of_requesters 	1
scalar Network800.node230 	number_of_resources 	44000
scalar Network800.node230 	time_period 	1
scalar Network800.node230 	number_of_messages 	79
scalar Network800.node230 	discovery_latency 	4488
scalar Network800.node230 	number_of_desired_resources 	20
scalar Network800.node230 	query_homogenity_rate 	33.333333333333
scalar Network800.node230 	qrecord_time 	9238
scalar Network800.node230 	discovery_resolution_rate 	33.333333333333
scalar Network800.node190 	rate_of_requesters 	1
scalar Network800.node190 	number_of_resources 	44000
scalar Network800.node190 	time_period 	2
scalar Network800.node190 	number_of_messages 	7
scalar Network800.node190 	discovery_latency 	4296
scalar Network800.node190 	number_of_desired_resources 	20
scalar Network800.node190 	query_homogenity_rate 	33.333333333333
scalar Network800.node190 	qrecord_time 	9346.834866337
scalar Network800.node190 	discovery_resolution_rate 	33.333333333333
scalar Network800.node460 	rate_of_requesters 	1
scalar Network800.node460 	number_of_resources 	44000
scalar Network800.node460 	time_period 	2
scalar Network800.node460 	number_of_messages 	65
scalar Network800.node460 	discovery_latency 	4344
scalar Network800.node460 	number_of_desired_resources 	20
scalar Network800.node460 	query_homogenity_rate 	33.333333333333
scalar Network800.node460 	qrecord_time 	9377.503324615
scalar Network800.node460 	discovery_resolution_rate 	33.333333333333
scalar Network800.node250 	rate_of_requesters 	1
scalar Network800.node250 	number_of_resources 	44000
scalar Network800.node250 	time_period 	2
scalar Network800.node250 	number_of_messages 	58
scalar Network800.node250 	discovery_latency 	4344
scalar Network800.node250 	number_of_desired_resources 	20
scalar Network800.node250 	query_homogenity_rate 	33.333333333333
scalar Network800.node250 	qrecord_time 	9543.58432295
scalar Network800.node250 	discovery_resolution_rate 	33.333333333333
scalar Network800.node230 	rate_of_requesters 	1
scalar Network800.node230 	number_of_resources 	44000
scalar Network800.node230 	time_period 	3
scalar Network800.node230 	number_of_messages 	106
scalar Network800.node230 	discovery_latency 	4272
scalar Network800.node230 	number_of_desired_resources 	20
scalar Network800.node230 	query_homogenity_rate 	33.333333333333
scalar Network800.node230 	qrecord_time 	10572.617179974
scalar Network800.node230 	discovery_resolution_rate 	33.333333333333
scalar Network800.node670 	rate_of_requesters 	1
scalar Network800.node670 	number_of_resources 	44000
scalar Network800.node670 	time_period 	1
scalar Network800.node670 	number_of_messages 	2
scalar Network800.node670 	discovery_latency 	5868
scalar Network800.node670 	number_of_desired_resources 	20
scalar Network800.node670 	query_homogenity_rate 	33.333333333333
scalar Network800.node670 	qrecord_time 	10600
scalar Network800.node670 	discovery_resolution_rate 	0
scalar Network800.node80 	rate_of_requesters 	1
scalar Network800.node80 	number_of_resources 	44000
scalar Network800.node80 	time_period 	1
scalar Network800.node80 	number_of_messages 	184
scalar Network800.node80 	discovery_latency 	5916
scalar Network800.node80 	number_of_desired_resources 	20
scalar Network800.node80 	query_homogenity_rate 	33.333333333333
scalar Network800.node80 	qrecord_time 	10630
scalar Network800.node80 	discovery_resolution_rate 	16.666666666667
scalar Network800.node370 	rate_of_requesters 	1
scalar Network800.node370 	number_of_resources 	44000
scalar Network800.node370 	time_period 	1
scalar Network800.node370 	number_of_messages 	0
scalar Network800.node370 	discovery_latency 	5916
scalar Network800.node370 	number_of_desired_resources 	20
scalar Network800.node370 	query_homogenity_rate 	33.333333333333
scalar Network800.node370 	qrecord_time 	10636
scalar Network800.node370 	discovery_resolution_rate 	0
scalar Network800.node330 	rate_of_requesters 	1
scalar Network800.node330 	number_of_resources 	44000
scalar Network800.node330 	time_period 	1
scalar Network800.node330 	number_of_messages 	9
scalar Network800.node330 	discovery_latency 	5952
scalar Network800.node330 	number_of_desired_resources 	20
scalar Network800.node330 	query_homogenity_rate 	33.333333333333
scalar Network800.node330 	qrecord_time 	10678
scalar Network800.node330 	discovery_resolution_rate 	33.333333333333
scalar Network800.node50 	rate_of_requesters 	1
scalar Network800.node50 	number_of_resources 	44000
scalar Network800.node50 	time_period 	1
scalar Network800.node50 	number_of_messages 	2
scalar Network800.node50 	discovery_latency 	5952
scalar Network800.node50 	number_of_desired_resources 	20
scalar Network800.node50 	query_homogenity_rate 	33.333333333333
scalar Network800.node50 	qrecord_time 	10702
scalar Network800.node50 	discovery_resolution_rate 	0
scalar Network800.node460 	rate_of_requesters 	1
scalar Network800.node460 	number_of_resources 	44000
scalar Network800.node460 	time_period 	1
scalar Network800.node460 	number_of_messages 	2
scalar Network800.node460 	discovery_latency 	5988
scalar Network800.node460 	number_of_desired_resources 	20
scalar Network800.node460 	query_homogenity_rate 	33.333333333333
scalar Network800.node460 	qrecord_time 	10714
scalar Network800.node460 	discovery_resolution_rate 	0
scalar Network800.node290 	rate_of_requesters 	1
scalar Network800.node290 	number_of_resources 	44000
scalar Network800.node290 	time_period 	1
scalar Network800.node290 	number_of_messages 	2
scalar Network800.node290 	discovery_latency 	6012
scalar Network800.node290 	number_of_desired_resources 	20
scalar Network800.node290 	query_homogenity_rate 	33.333333333333
scalar Network800.node290 	qrecord_time 	10750
scalar Network800.node290 	discovery_resolution_rate 	0
scalar Network800.node790 	rate_of_requesters 	1
scalar Network800.node790 	number_of_resources 	44000
scalar Network800.node790 	time_period 	1
scalar Network800.node790 	number_of_messages 	2
scalar Network800.node790 	discovery_latency 	5964
scalar Network800.node790 	number_of_desired_resources 	20
scalar Network800.node790 	query_homogenity_rate 	33.333333333333
scalar Network800.node790 	qrecord_time 	10774
scalar Network800.node790 	discovery_resolution_rate 	0
scalar Network800.node780 	rate_of_requesters 	1
scalar Network800.node780 	number_of_resources 	44000
scalar Network800.node780 	time_period 	1
scalar Network800.node780 	number_of_messages 	2
scalar Network800.node780 	discovery_latency 	6000
scalar Network800.node780 	number_of_desired_resources 	20
scalar Network800.node780 	query_homogenity_rate 	33.333333333333
scalar Network800.node780 	qrecord_time 	10774
scalar Network800.node780 	discovery_resolution_rate 	0
scalar Network800.node420 	rate_of_requesters 	1
scalar Network800.node420 	number_of_resources 	44000
scalar Network800.node420 	time_period 	1
scalar Network800.node420 	number_of_messages 	19
scalar Network800.node420 	discovery_latency 	6012
scalar Network800.node420 	number_of_desired_resources 	20
scalar Network800.node420 	query_homogenity_rate 	33.333333333333
scalar Network800.node420 	qrecord_time 	10786
scalar Network800.node420 	discovery_resolution_rate 	33.333333333333
scalar Network800.node10 	rate_of_requesters 	1
scalar Network800.node10 	number_of_resources 	44000
scalar Network800.node10 	time_period 	1
scalar Network800.node10 	number_of_messages 	179
scalar Network800.node10 	discovery_latency 	6036
scalar Network800.node10 	number_of_desired_resources 	20
scalar Network800.node10 	query_homogenity_rate 	33.333333333333
scalar Network800.node10 	qrecord_time 	10798
scalar Network800.node10 	discovery_resolution_rate 	16.666666666667
scalar Network800.node180 	rate_of_requesters 	1
scalar Network800.node180 	number_of_resources 	44000
scalar Network800.node180 	time_period 	2
scalar Network800.node180 	number_of_messages 	2
scalar Network800.node180 	discovery_latency 	6000
scalar Network800.node180 	number_of_desired_resources 	20
scalar Network800.node180 	query_homogenity_rate 	33.333333333333
scalar Network800.node180 	qrecord_time 	10817.054028148
scalar Network800.node180 	discovery_resolution_rate 	0
scalar Network800.node630 	rate_of_requesters 	1
scalar Network800.node630 	number_of_resources 	44000
scalar Network800.node630 	time_period 	1
scalar Network800.node630 	number_of_messages 	2
scalar Network800.node630 	discovery_latency 	6012
scalar Network800.node630 	number_of_desired_resources 	20
scalar Network800.node630 	query_homogenity_rate 	33.333333333333
scalar Network800.node630 	qrecord_time 	10828
scalar Network800.node630 	discovery_resolution_rate 	0
scalar Network800.node250 	rate_of_requesters 	1
scalar Network800.node250 	number_of_resources 	44000
scalar Network800.node250 	time_period 	3
scalar Network800.node250 	number_of_messages 	90
scalar Network800.node250 	discovery_latency 	4344
scalar Network800.node250 	number_of_desired_resources 	20
scalar Network800.node250 	query_homogenity_rate 	33.333333333333
scalar Network800.node250 	qrecord_time 	10863.407834194
scalar Network800.node250 	discovery_resolution_rate 	33.333333333333
scalar Network800.node140 	rate_of_requesters 	1
scalar Network800.node140 	number_of_resources 	44000
scalar Network800.node140 	time_period 	1
scalar Network800.node140 	number_of_messages 	12
scalar Network800.node140 	discovery_latency 	6156
scalar Network800.node140 	number_of_desired_resources 	20
scalar Network800.node140 	query_homogenity_rate 	33.333333333333
scalar Network800.node140 	qrecord_time 	10870
scalar Network800.node140 	discovery_resolution_rate 	33.333333333333
scalar Network800.node500 	rate_of_requesters 	1
scalar Network800.node500 	number_of_resources 	44000
scalar Network800.node500 	time_period 	1
scalar Network800.node500 	number_of_messages 	2
scalar Network800.node500 	discovery_latency 	6180
scalar Network800.node500 	number_of_desired_resources 	20
scalar Network800.node500 	query_homogenity_rate 	33.333333333333
scalar Network800.node500 	qrecord_time 	10870
scalar Network800.node500 	discovery_resolution_rate 	0
scalar Network800.node570 	rate_of_requesters 	1
scalar Network800.node570 	number_of_resources 	44000
scalar Network800.node570 	time_period 	1
scalar Network800.node570 	number_of_messages 	2
scalar Network800.node570 	discovery_latency 	6180
scalar Network800.node570 	number_of_desired_resources 	20
scalar Network800.node570 	query_homogenity_rate 	33.333333333333
scalar Network800.node570 	qrecord_time 	10870
scalar Network800.node570 	discovery_resolution_rate 	0
scalar Network800.node20 	rate_of_requesters 	1
scalar Network800.node20 	number_of_resources 	44000
scalar Network800.node20 	time_period 	1
scalar Network800.node20 	number_of_messages 	0
scalar Network800.node20 	discovery_latency 	6168
scalar Network800.node20 	number_of_desired_resources 	20
scalar Network800.node20 	query_homogenity_rate 	33.333333333333
scalar Network800.node20 	qrecord_time 	10888
scalar Network800.node20 	discovery_resolution_rate 	0
scalar Network800.node480 	rate_of_requesters 	1
scalar Network800.node480 	number_of_resources 	44000
scalar Network800.node480 	time_period 	1
scalar Network800.node480 	number_of_messages 	5
scalar Network800.node480 	discovery_latency 	6144
scalar Network800.node480 	number_of_desired_resources 	20
scalar Network800.node480 	query_homogenity_rate 	33.333333333333
scalar Network800.node480 	qrecord_time 	10894
scalar Network800.node480 	discovery_resolution_rate 	33.333333333333
scalar Network800.node0 	rate_of_requesters 	1
scalar Network800.node0 	number_of_resources 	44000
scalar Network800.node0 	time_period 	1
scalar Network800.node0 	number_of_messages 	2
scalar Network800.node0 	discovery_latency 	6192
scalar Network800.node0 	number_of_desired_resources 	20
scalar Network800.node0 	query_homogenity_rate 	33.333333333333
scalar Network800.node0 	qrecord_time 	10906
scalar Network800.node0 	discovery_resolution_rate 	0
scalar Network800.node340 	rate_of_requesters 	1
scalar Network800.node340 	number_of_resources 	44000
scalar Network800.node340 	time_period 	1
scalar Network800.node340 	number_of_messages 	2
scalar Network800.node340 	discovery_latency 	6156
scalar Network800.node340 	number_of_desired_resources 	20
scalar Network800.node340 	query_homogenity_rate 	33.333333333333
scalar Network800.node340 	qrecord_time 	10906
scalar Network800.node340 	discovery_resolution_rate 	0
scalar Network800.node640 	rate_of_requesters 	1
scalar Network800.node640 	number_of_resources 	44000
scalar Network800.node640 	time_period 	1
scalar Network800.node640 	number_of_messages 	2
scalar Network800.node640 	discovery_latency 	6180
scalar Network800.node640 	number_of_desired_resources 	20
scalar Network800.node640 	query_homogenity_rate 	33.333333333333
scalar Network800.node640 	qrecord_time 	10948
scalar Network800.node640 	discovery_resolution_rate 	0
scalar Network800.node150 	rate_of_requesters 	1
scalar Network800.node150 	number_of_resources 	44000
scalar Network800.node150 	time_period 	2
scalar Network800.node150 	number_of_messages 	298
scalar Network800.node150 	discovery_latency 	6120
scalar Network800.node150 	number_of_desired_resources 	20
scalar Network800.node150 	query_homogenity_rate 	33.333333333333
scalar Network800.node150 	qrecord_time 	10970.383159948
scalar Network800.node150 	discovery_resolution_rate 	16.666666666667
scalar Network800.node760 	rate_of_requesters 	1
scalar Network800.node760 	number_of_resources 	44000
scalar Network800.node760 	time_period 	1
scalar Network800.node760 	number_of_messages 	2
scalar Network800.node760 	discovery_latency 	6216
scalar Network800.node760 	number_of_desired_resources 	20
scalar Network800.node760 	query_homogenity_rate 	33.333333333333
scalar Network800.node760 	qrecord_time 	11014
scalar Network800.node760 	discovery_resolution_rate 	0
scalar Network800.node600 	rate_of_requesters 	1
scalar Network800.node600 	number_of_resources 	44000
scalar Network800.node600 	time_period 	1
scalar Network800.node600 	number_of_messages 	23
scalar Network800.node600 	discovery_latency 	6396
scalar Network800.node600 	number_of_desired_resources 	20
scalar Network800.node600 	query_homogenity_rate 	33.333333333333
scalar Network800.node600 	qrecord_time 	11128
scalar Network800.node600 	discovery_resolution_rate 	33.333333333333
scalar Network800.node140 	rate_of_requesters 	1
scalar Network800.node140 	number_of_resources 	44000
scalar Network800.node140 	time_period 	2
scalar Network800.node140 	number_of_messages 	2
scalar Network800.node140 	discovery_latency 	5892
scalar Network800.node140 	number_of_desired_resources 	20
scalar Network800.node140 	query_homogenity_rate 	33.333333333333
scalar Network800.node140 	qrecord_time 	11244.520253718
scalar Network800.node140 	discovery_resolution_rate 	0
scalar Network800.node30 	rate_of_requesters 	1
scalar Network800.node30 	number_of_resources 	44000
scalar Network800.node30 	time_period 	2
scalar Network800.node30 	number_of_messages 	2
scalar Network800.node30 	discovery_latency 	5856
scalar Network800.node30 	number_of_desired_resources 	20
scalar Network800.node30 	query_homogenity_rate 	33.333333333333
scalar Network800.node30 	qrecord_time 	11278.833896914
scalar Network800.node30 	discovery_resolution_rate 	0
scalar Network800.node580 	rate_of_requesters 	1
scalar Network800.node580 	number_of_resources 	44000
scalar Network800.node580 	time_period 	3
scalar Network800.node580 	number_of_messages 	2
scalar Network800.node580 	discovery_latency 	5940
scalar Network800.node580 	number_of_desired_resources 	20
scalar Network800.node580 	query_homogenity_rate 	33.333333333333
scalar Network800.node580 	qrecord_time 	11291.033589699
scalar Network800.node580 	discovery_resolution_rate 	0
scalar Network800.node360 	rate_of_requesters 	1
scalar Network800.node360 	number_of_resources 	44000
scalar Network800.node360 	time_period 	2
scalar Network800.node360 	number_of_messages 	2
scalar Network800.node360 	discovery_latency 	6060
scalar Network800.node360 	number_of_desired_resources 	20
scalar Network800.node360 	query_homogenity_rate 	33.333333333333
scalar Network800.node360 	qrecord_time 	11339.014533615
scalar Network800.node360 	discovery_resolution_rate 	0
scalar Network800.node580 	rate_of_requesters 	1
scalar Network800.node580 	number_of_resources 	44000
scalar Network800.node580 	time_period 	2
scalar Network800.node580 	number_of_messages 	2
scalar Network800.node580 	discovery_latency 	6180
scalar Network800.node580 	number_of_desired_resources 	20
scalar Network800.node580 	query_homogenity_rate 	33.333333333333
scalar Network800.node580 	qrecord_time 	11357.859779324
scalar Network800.node580 	discovery_resolution_rate 	0
scalar Network800.node80 	rate_of_requesters 	1
scalar Network800.node80 	number_of_resources 	44000
scalar Network800.node80 	time_period 	2
scalar Network800.node80 	number_of_messages 	2
scalar Network800.node80 	discovery_latency 	6024
scalar Network800.node80 	number_of_desired_resources 	20
scalar Network800.node80 	query_homogenity_rate 	33.333333333333
scalar Network800.node80 	qrecord_time 	11366.322644373
scalar Network800.node80 	discovery_resolution_rate 	0
scalar Network800.node740 	rate_of_requesters 	1
scalar Network800.node740 	number_of_resources 	44000
scalar Network800.node740 	time_period 	3
scalar Network800.node740 	number_of_messages 	2
scalar Network800.node740 	discovery_latency 	5952
scalar Network800.node740 	number_of_desired_resources 	20
scalar Network800.node740 	query_homogenity_rate 	33.333333333333
scalar Network800.node740 	qrecord_time 	11411.112318284
scalar Network800.node740 	discovery_resolution_rate 	0
scalar Network800.node30 	rate_of_requesters 	1
scalar Network800.node30 	number_of_resources 	44000
scalar Network800.node30 	time_period 	3
scalar Network800.node30 	number_of_messages 	2
scalar Network800.node30 	discovery_latency 	5976
scalar Network800.node30 	number_of_desired_resources 	20
scalar Network800.node30 	query_homogenity_rate 	33.333333333333
scalar Network800.node30 	qrecord_time 	11460.875538668
scalar Network800.node30 	discovery_resolution_rate 	0
scalar Network800.node230 	rate_of_requesters 	1
scalar Network800.node230 	number_of_resources 	44000
scalar Network800.node230 	time_period 	2
scalar Network800.node230 	number_of_messages 	2
scalar Network800.node230 	discovery_latency 	6036
scalar Network800.node230 	number_of_desired_resources 	20
scalar Network800.node230 	query_homogenity_rate 	33.333333333333
scalar Network800.node230 	qrecord_time 	11517.773591431
scalar Network800.node230 	discovery_resolution_rate 	0
scalar Network800.node320 	rate_of_requesters 	1
scalar Network800.node320 	number_of_resources 	44000
scalar Network800.node320 	time_period 	3
scalar Network800.node320 	number_of_messages 	2
scalar Network800.node320 	discovery_latency 	5928
scalar Network800.node320 	number_of_desired_resources 	20
scalar Network800.node320 	query_homogenity_rate 	33.333333333333
scalar Network800.node320 	qrecord_time 	11568.294685965
scalar Network800.node320 	discovery_resolution_rate 	0
scalar Network800.node640 	rate_of_requesters 	1
scalar Network800.node640 	number_of_resources 	44000
scalar Network800.node640 	time_period 	2
scalar Network800.node640 	number_of_messages 	2
scalar Network800.node640 	discovery_latency 	5940
scalar Network800.node640 	number_of_desired_resources 	20
scalar Network800.node640 	query_homogenity_rate 	33.333333333333
scalar Network800.node640 	qrecord_time 	11626.820370199
scalar Network800.node640 	discovery_resolution_rate 	0
scalar Network800.node320 	rate_of_requesters 	1
scalar Network800.node320 	number_of_resources 	44000
scalar Network800.node320 	time_period 	2
scalar Network800.node320 	number_of_messages 	2
scalar Network800.node320 	discovery_latency 	6144
scalar Network800.node320 	number_of_desired_resources 	20
scalar Network800.node320 	query_homogenity_rate 	33.333333333333
scalar Network800.node320 	qrecord_time 	11638.388949767
scalar Network800.node320 	discovery_resolution_rate 	0
scalar Network800.node490 	rate_of_requesters 	1
scalar Network800.node490 	number_of_resources 	44000
scalar Network800.node490 	time_period 	2
scalar Network800.node490 	number_of_messages 	2
scalar Network800.node490 	discovery_latency 	6024
scalar Network800.node490 	number_of_desired_resources 	20
scalar Network800.node490 	query_homogenity_rate 	33.333333333333
scalar Network800.node490 	qrecord_time 	11644.127266101
scalar Network800.node490 	discovery_resolution_rate 	0
scalar Network800.node360 	rate_of_requesters 	1
scalar Network800.node360 	number_of_resources 	44000
scalar Network800.node360 	time_period 	3
scalar Network800.node360 	number_of_messages 	2
scalar Network800.node360 	discovery_latency 	6096
scalar Network800.node360 	number_of_desired_resources 	20
scalar Network800.node360 	query_homogenity_rate 	33.333333333333
scalar Network800.node360 	qrecord_time 	11713.87114232
scalar Network800.node360 	discovery_resolution_rate 	0
scalar Network800.node310 	rate_of_requesters 	1
scalar Network800.node310 	number_of_resources 	44000
scalar Network800.node310 	time_period 	2
scalar Network800.node310 	number_of_messages 	2
scalar Network800.node310 	discovery_latency 	6108
scalar Network800.node310 	number_of_desired_resources 	20
scalar Network800.node310 	query_homogenity_rate 	33.333333333333
scalar Network800.node310 	qrecord_time 	11744.56282032
scalar Network800.node310 	discovery_resolution_rate 	0
scalar Network800.node370 	rate_of_requesters 	1
scalar Network800.node370 	number_of_resources 	44000
scalar Network800.node370 	time_period 	2
scalar Network800.node370 	number_of_messages 	0
scalar Network800.node370 	discovery_latency 	6072
scalar Network800.node370 	number_of_desired_resources 	20
scalar Network800.node370 	query_homogenity_rate 	33.333333333333
scalar Network800.node370 	qrecord_time 	11807.710180213
scalar Network800.node370 	discovery_resolution_rate 	0
scalar Network800.node310 	rate_of_requesters 	1
scalar Network800.node310 	number_of_resources 	44000
scalar Network800.node310 	time_period 	3
scalar Network800.node310 	number_of_messages 	2
scalar Network800.node310 	discovery_latency 	6108
scalar Network800.node310 	number_of_desired_resources 	20
scalar Network800.node310 	query_homogenity_rate 	33.333333333333
scalar Network800.node310 	qrecord_time 	11864.005221657
scalar Network800.node310 	discovery_resolution_rate 	0
scalar Network800.node770 	rate_of_requesters 	1
scalar Network800.node770 	number_of_resources 	44000
scalar Network800.node770 	time_period 	2
scalar Network800.node770 	number_of_messages 	2
scalar Network800.node770 	discovery_latency 	5916
scalar Network800.node770 	number_of_desired_resources 	20
scalar Network800.node770 	query_homogenity_rate 	33.333333333333
scalar Network800.node770 	qrecord_time 	11871.167887674
scalar Network800.node770 	discovery_resolution_rate 	0
scalar Network800.node500 	rate_of_requesters 	1
scalar Network800.node500 	number_of_resources 	44000
scalar Network800.node500 	time_period 	2
scalar Network800.node500 	number_of_messages 	2
scalar Network800.node500 	discovery_latency 	6048
scalar Network800.node500 	number_of_desired_resources 	20
scalar Network800.node500 	query_homogenity_rate 	33.333333333333
scalar Network800.node500 	qrecord_time 	11963.879228883
scalar Network800.node500 	discovery_resolution_rate 	0
scalar Network800.node190 	rate_of_requesters 	1
scalar Network800.node190 	number_of_resources 	44000
scalar Network800.node190 	time_period 	3
scalar Network800.node190 	number_of_messages 	2
scalar Network800.node190 	discovery_latency 	6000
scalar Network800.node190 	number_of_desired_resources 	20
scalar Network800.node190 	query_homogenity_rate 	33.333333333333
scalar Network800.node190 	qrecord_time 	11971.903868082
scalar Network800.node190 	discovery_resolution_rate 	0
scalar Network800.node710 	rate_of_requesters 	1
scalar Network800.node710 	number_of_resources 	44000
scalar Network800.node710 	time_period 	2
scalar Network800.node710 	number_of_messages 	2
scalar Network800.node710 	discovery_latency 	5916
scalar Network800.node710 	number_of_desired_resources 	20
scalar Network800.node710 	query_homogenity_rate 	33.333333333333
scalar Network800.node710 	qrecord_time 	11983.628614042
scalar Network800.node710 	discovery_resolution_rate 	0
scalar Network800.node150 	rate_of_requesters 	1
scalar Network800.node150 	number_of_resources 	44000
scalar Network800.node150 	time_period 	3
scalar Network800.node150 	number_of_messages 	2
scalar Network800.node150 	discovery_latency 	6096
scalar Network800.node150 	number_of_desired_resources 	20
scalar Network800.node150 	query_homogenity_rate 	33.333333333333
scalar Network800.node150 	qrecord_time 	12014.364776528
scalar Network800.node150 	discovery_resolution_rate 	0
scalar Network800.node300 	rate_of_requesters 	1
scalar Network800.node300 	number_of_resources 	44000
scalar Network800.node300 	time_period 	2
scalar Network800.node300 	number_of_messages 	2
scalar Network800.node300 	discovery_latency 	5976
scalar Network800.node300 	number_of_desired_resources 	20
scalar Network800.node300 	query_homogenity_rate 	33.333333333333
scalar Network800.node300 	qrecord_time 	12045.528583674
scalar Network800.node300 	discovery_resolution_rate 	0
scalar Network800.node100 	rate_of_requesters 	1
scalar Network800.node100 	number_of_resources 	44000
scalar Network800.node100 	time_period 	2
scalar Network800.node100 	number_of_messages 	0
scalar Network800.node100 	discovery_latency 	6096
scalar Network800.node100 	number_of_desired_resources 	20
scalar Network800.node100 	query_homogenity_rate 	33.333333333333
scalar Network800.node100 	qrecord_time 	12080.661738266
scalar Network800.node100 	discovery_resolution_rate 	0
scalar Network800.node170 	rate_of_requesters 	1
scalar Network800.node170 	number_of_resources 	44000
scalar Network800.node170 	time_period 	2
scalar Network800.node170 	number_of_messages 	2
scalar Network800.node170 	discovery_latency 	6012
scalar Network800.node170 	number_of_desired_resources 	20
scalar Network800.node170 	query_homogenity_rate 	33.333333333333
scalar Network800.node170 	qrecord_time 	12243.74021438
scalar Network800.node170 	discovery_resolution_rate 	0
scalar Network800.node260 	rate_of_requesters 	1
scalar Network800.node260 	number_of_resources 	44000
scalar Network800.node260 	time_period 	2
scalar Network800.node260 	number_of_messages 	2
scalar Network800.node260 	discovery_latency 	6036
scalar Network800.node260 	number_of_desired_resources 	20
scalar Network800.node260 	query_homogenity_rate 	33.333333333333
scalar Network800.node260 	qrecord_time 	12383.587007258
scalar Network800.node260 	discovery_resolution_rate 	0
scalar Network800.node340 	rate_of_requesters 	1
scalar Network800.node340 	number_of_resources 	44000
scalar Network800.node340 	time_period 	2
scalar Network800.node340 	number_of_messages 	2
scalar Network800.node340 	discovery_latency 	6108
scalar Network800.node340 	number_of_desired_resources 	20
scalar Network800.node340 	query_homogenity_rate 	33.333333333333
scalar Network800.node340 	qrecord_time 	12447.626880155
scalar Network800.node340 	discovery_resolution_rate 	0
scalar Network800.node130 	rate_of_requesters 	1
scalar Network800.node130 	number_of_resources 	44000
scalar Network800.node130 	time_period 	2
scalar Network800.node130 	number_of_messages 	298
scalar Network800.node130 	discovery_latency 	5988
scalar Network800.node130 	number_of_desired_resources 	20
scalar Network800.node130 	query_homogenity_rate 	33.333333333333
scalar Network800.node130 	qrecord_time 	12532.445748671
scalar Network800.node130 	discovery_resolution_rate 	16.666666666667
scalar Network800.node140 	rate_of_requesters 	1
scalar Network800.node140 	number_of_resources 	44000
scalar Network800.node140 	time_period 	3
scalar Network800.node140 	number_of_messages 	2
scalar Network800.node140 	discovery_latency 	5964
scalar Network800.node140 	number_of_desired_resources 	20
scalar Network800.node140 	query_homogenity_rate 	33.333333333333
scalar Network800.node140 	qrecord_time 	12547.8883522
scalar Network800.node140 	discovery_resolution_rate 	0
scalar Network800.node30 	rate_of_requesters 	1
scalar Network800.node30 	number_of_resources 	44000
scalar Network800.node30 	time_period 	4
scalar Network800.node30 	number_of_messages 	2
scalar Network800.node30 	discovery_latency 	5928
scalar Network800.node30 	number_of_desired_resources 	20
scalar Network800.node30 	query_homogenity_rate 	33.333333333333
scalar Network800.node30 	qrecord_time 	12573.677009269
scalar Network800.node30 	discovery_resolution_rate 	0
scalar Network800.node190 	rate_of_requesters 	1
scalar Network800.node190 	number_of_resources 	44000
scalar Network800.node190 	time_period 	4
scalar Network800.node190 	number_of_messages 	2
scalar Network800.node190 	discovery_latency 	6036
scalar Network800.node190 	number_of_desired_resources 	20
scalar Network800.node190 	query_homogenity_rate 	33.333333333333
scalar Network800.node190 	qrecord_time 	12597.46014559
scalar Network800.node190 	discovery_resolution_rate 	0
scalar Network800.node570 	rate_of_requesters 	1
scalar Network800.node570 	number_of_resources 	44000
scalar Network800.node570 	time_period 	2
scalar Network800.node570 	number_of_messages 	2
scalar Network800.node570 	discovery_latency 	6108
scalar Network800.node570 	number_of_desired_resources 	20
scalar Network800.node570 	query_homogenity_rate 	33.333333333333
scalar Network800.node570 	qrecord_time 	12603.653728446
scalar Network800.node570 	discovery_resolution_rate 	0
scalar Network800.node170 	rate_of_requesters 	1
scalar Network800.node170 	number_of_resources 	44000
scalar Network800.node170 	time_period 	3
scalar Network800.node170 	number_of_messages 	2
scalar Network800.node170 	discovery_latency 	5880
scalar Network800.node170 	number_of_desired_resources 	20
scalar Network800.node170 	query_homogenity_rate 	33.333333333333
scalar Network800.node170 	qrecord_time 	12679.093715796
scalar Network800.node170 	discovery_resolution_rate 	0
scalar Network800.node510 	rate_of_requesters 	1
scalar Network800.node510 	number_of_resources 	44000
scalar Network800.node510 	time_period 	3
scalar Network800.node510 	number_of_messages 	93
scalar Network800.node510 	discovery_latency 	4272
scalar Network800.node510 	number_of_desired_resources 	20
scalar Network800.node510 	query_homogenity_rate 	33.333333333333
scalar Network800.node510 	qrecord_time 	12791.518157169
scalar Network800.node510 	discovery_resolution_rate 	33.333333333333
scalar Network800.node70 	rate_of_requesters 	1
scalar Network800.node70 	number_of_resources 	44000
scalar Network800.node70 	time_period 	2
scalar Network800.node70 	number_of_messages 	2
scalar Network800.node70 	discovery_latency 	5988
scalar Network800.node70 	number_of_desired_resources 	20
scalar Network800.node70 	query_homogenity_rate 	33.333333333333
scalar Network800.node70 	qrecord_time 	12842.605173382
scalar Network800.node70 	discovery_resolution_rate 	0
scalar Network800.node240 	rate_of_requesters 	1
scalar Network800.node240 	number_of_resources 	44000
scalar Network800.node240 	time_period 	2
scalar Network800.node240 	number_of_messages 	2
scalar Network800.node240 	discovery_latency 	6084
scalar Network800.node240 	number_of_desired_resources 	20
scalar Network800.node240 	query_homogenity_rate 	33.333333333333
scalar Network800.node240 	qrecord_time 	12905.282357681
scalar Network800.node240 	discovery_resolution_rate 	0
scalar Network800.node270 	rate_of_requesters 	1
scalar Network800.node270 	number_of_resources 	44000
scalar Network800.node270 	time_period 	2
scalar Network800.node270 	number_of_messages 	2
scalar Network800.node270 	discovery_latency 	6108
scalar Network800.node270 	number_of_desired_resources 	20
scalar Network800.node270 	query_homogenity_rate 	33.333333333333
scalar Network800.node270 	qrecord_time 	12923.8844029
scalar Network800.node270 	discovery_resolution_rate 	0
scalar Network800.node610 	rate_of_requesters 	1
scalar Network800.node610 	number_of_resources 	44000
scalar Network800.node610 	time_period 	2
scalar Network800.node610 	number_of_messages 	0
scalar Network800.node610 	discovery_latency 	6060
scalar Network800.node610 	number_of_desired_resources 	20
scalar Network800.node610 	query_homogenity_rate 	33.333333333333
scalar Network800.node610 	qrecord_time 	12928.303605689
scalar Network800.node610 	discovery_resolution_rate 	0
scalar Network800.node510 	rate_of_requesters 	1
scalar Network800.node510 	number_of_resources 	44000
scalar Network800.node510 	time_period 	2
scalar Network800.node510 	number_of_messages 	2
scalar Network800.node510 	discovery_latency 	6132
scalar Network800.node510 	number_of_desired_resources 	20
scalar Network800.node510 	query_homogenity_rate 	33.333333333333
scalar Network800.node510 	qrecord_time 	13103.616559827
scalar Network800.node510 	discovery_resolution_rate 	0
scalar Network800.node10 	rate_of_requesters 	1
scalar Network800.node10 	number_of_resources 	44000
scalar Network800.node10 	time_period 	2
scalar Network800.node10 	number_of_messages 	2
scalar Network800.node10 	discovery_latency 	6072
scalar Network800.node10 	number_of_desired_resources 	20
scalar Network800.node10 	query_homogenity_rate 	33.333333333333
scalar Network800.node10 	qrecord_time 	13109.310120147
scalar Network800.node10 	discovery_resolution_rate 	0
scalar Network800.node30 	rate_of_requesters 	1
scalar Network800.node30 	number_of_resources 	44000
scalar Network800.node30 	time_period 	5
scalar Network800.node30 	number_of_messages 	2
scalar Network800.node30 	discovery_latency 	6144
scalar Network800.node30 	number_of_desired_resources 	20
scalar Network800.node30 	query_homogenity_rate 	33.333333333333
scalar Network800.node30 	qrecord_time 	13158.785897359
scalar Network800.node30 	discovery_resolution_rate 	0
scalar Network800.node420 	rate_of_requesters 	1
scalar Network800.node420 	number_of_resources 	44000
scalar Network800.node420 	time_period 	2
scalar Network800.node420 	number_of_messages 	2
scalar Network800.node420 	discovery_latency 	5964
scalar Network800.node420 	number_of_desired_resources 	20
scalar Network800.node420 	query_homogenity_rate 	33.333333333333
scalar Network800.node420 	qrecord_time 	13228.099968282
scalar Network800.node420 	discovery_resolution_rate 	0
scalar Network800.node790 	rate_of_requesters 	1
scalar Network800.node790 	number_of_resources 	44000
scalar Network800.node790 	time_period 	2
scalar Network800.node790 	number_of_messages 	2
scalar Network800.node790 	discovery_latency 	5988
scalar Network800.node790 	number_of_desired_resources 	20
scalar Network800.node790 	query_homogenity_rate 	33.333333333333
scalar Network800.node790 	qrecord_time 	13239.547309951
scalar Network800.node790 	discovery_resolution_rate 	0
scalar Network800.node430 	rate_of_requesters 	1
scalar Network800.node430 	number_of_resources 	44000
scalar Network800.node430 	time_period 	2
scalar Network800.node430 	number_of_messages 	2
scalar Network800.node430 	discovery_latency 	6012
scalar Network800.node430 	number_of_desired_resources 	20
scalar Network800.node430 	query_homogenity_rate 	33.333333333333
scalar Network800.node430 	qrecord_time 	13241.828017937
scalar Network800.node430 	discovery_resolution_rate 	0
scalar Network800.node240 	rate_of_requesters 	1
scalar Network800.node240 	number_of_resources 	44000
scalar Network800.node240 	time_period 	3
scalar Network800.node240 	number_of_messages 	2
scalar Network800.node240 	discovery_latency 	6156
scalar Network800.node240 	number_of_desired_resources 	20
scalar Network800.node240 	query_homogenity_rate 	33.333333333333
scalar Network800.node240 	qrecord_time 	13257.631926643
scalar Network800.node240 	discovery_resolution_rate 	0
scalar Network800.node460 	rate_of_requesters 	1
scalar Network800.node460 	number_of_resources 	44000
scalar Network800.node460 	time_period 	3
scalar Network800.node460 	number_of_messages 	150
scalar Network800.node460 	discovery_latency 	4140
scalar Network800.node460 	number_of_desired_resources 	20
scalar Network800.node460 	query_homogenity_rate 	33.333333333333
scalar Network800.node460 	qrecord_time 	13315.395037765
scalar Network800.node460 	discovery_resolution_rate 	33.333333333333
scalar Network800.node580 	rate_of_requesters 	1
scalar Network800.node580 	number_of_resources 	44000
scalar Network800.node580 	time_period 	4
scalar Network800.node580 	number_of_messages 	2
scalar Network800.node580 	discovery_latency 	5928
scalar Network800.node580 	number_of_desired_resources 	20
scalar Network800.node580 	query_homogenity_rate 	33.333333333333
scalar Network800.node580 	qrecord_time 	13376.075674623
scalar Network800.node580 	discovery_resolution_rate 	0
scalar Network800.node290 	rate_of_requesters 	1
scalar Network800.node290 	number_of_resources 	44000
scalar Network800.node290 	time_period 	2
scalar Network800.node290 	number_of_messages 	2
scalar Network800.node290 	discovery_latency 	6108
scalar Network800.node290 	number_of_desired_resources 	20
scalar Network800.node290 	query_homogenity_rate 	33.333333333333
scalar Network800.node290 	qrecord_time 	13459.719812019
scalar Network800.node290 	discovery_resolution_rate 	0
scalar Network800.node100 	rate_of_requesters 	1
scalar Network800.node100 	number_of_resources 	44000
scalar Network800.node100 	time_period 	3
scalar Network800.node100 	number_of_messages 	0
scalar Network800.node100 	discovery_latency 	6000
scalar Network800.node100 	number_of_desired_resources 	20
scalar Network800.node100 	query_homogenity_rate 	33.333333333333
scalar Network800.node100 	qrecord_time 	13496.296168472
scalar Network800.node100 	discovery_resolution_rate 	0
scalar Network800.node440 	rate_of_requesters 	1
scalar Network800.node440 	number_of_resources 	44000
scalar Network800.node440 	time_period 	2
scalar Network800.node440 	number_of_messages 	2
scalar Network800.node440 	discovery_latency 	6144
scalar Network800.node440 	number_of_desired_resources 	20
scalar Network800.node440 	query_homogenity_rate 	33.333333333333
scalar Network800.node440 	qrecord_time 	13506.932267735
scalar Network800.node440 	discovery_resolution_rate 	0
scalar Network800.node60 	rate_of_requesters 	1
scalar Network800.node60 	number_of_resources 	44000
scalar Network800.node60 	time_period 	2
scalar Network800.node60 	number_of_messages 	2
scalar Network800.node60 	discovery_latency 	6048
scalar Network800.node60 	number_of_desired_resources 	20
scalar Network800.node60 	query_homogenity_rate 	33.333333333333
scalar Network800.node60 	qrecord_time 	13565.507445073
scalar Network800.node60 	discovery_resolution_rate 	0
scalar Network800.node750 	rate_of_requesters 	1
scalar Network800.node750 	number_of_resources 	44000
scalar Network800.node750 	time_period 	2
scalar Network800.node750 	number_of_messages 	236
scalar Network800.node750 	discovery_latency 	4608
scalar Network800.node750 	number_of_desired_resources 	20
scalar Network800.node750 	query_homogenity_rate 	33.333333333333
scalar Network800.node750 	qrecord_time 	13589.358538951
scalar Network800.node750 	discovery_resolution_rate 	33.333333333333
scalar Network800.node570 	rate_of_requesters 	1
scalar Network800.node570 	number_of_resources 	44000
scalar Network800.node570 	time_period 	3
scalar Network800.node570 	number_of_messages 	2
scalar Network800.node570 	discovery_latency 	6072
scalar Network800.node570 	number_of_desired_resources 	20
scalar Network800.node570 	query_homogenity_rate 	33.333333333333
scalar Network800.node570 	qrecord_time 	13684.191346823
scalar Network800.node570 	discovery_resolution_rate 	0
scalar Network800.node10 	rate_of_requesters 	1
scalar Network800.node10 	number_of_resources 	44000
scalar Network800.node10 	time_period 	3
scalar Network800.node10 	number_of_messages 	2
scalar Network800.node10 	discovery_latency 	6024
scalar Network800.node10 	number_of_desired_resources 	20
scalar Network800.node10 	query_homogenity_rate 	33.333333333333
scalar Network800.node10 	qrecord_time 	13709.093684232
scalar Network800.node10 	discovery_resolution_rate 	0
scalar Network800.node110 	rate_of_requesters 	1
scalar Network800.node110 	number_of_resources 	44000
scalar Network800.node110 	time_period 	2
scalar Network800.node110 	number_of_messages 	2
scalar Network800.node110 	discovery_latency 	6132
scalar Network800.node110 	number_of_desired_resources 	20
scalar Network800.node110 	query_homogenity_rate 	33.333333333333
scalar Network800.node110 	qrecord_time 	13710.747378381
scalar Network800.node110 	discovery_resolution_rate 	0
scalar Network800.node260 	rate_of_requesters 	1
scalar Network800.node260 	number_of_resources 	44000
scalar Network800.node260 	time_period 	3
scalar Network800.node260 	number_of_messages 	2
scalar Network800.node260 	discovery_latency 	6036
scalar Network800.node260 	number_of_desired_resources 	20
scalar Network800.node260 	query_homogenity_rate 	33.333333333333
scalar Network800.node260 	qrecord_time 	13742.374779909
scalar Network800.node260 	discovery_resolution_rate 	0
scalar Network800.node720 	rate_of_requesters 	1
scalar Network800.node720 	number_of_resources 	44000
scalar Network800.node720 	time_period 	2
scalar Network800.node720 	number_of_messages 	44
scalar Network800.node720 	discovery_latency 	4248
scalar Network800.node720 	number_of_desired_resources 	20
scalar Network800.node720 	query_homogenity_rate 	33.333333333333
scalar Network800.node720 	qrecord_time 	13786.128795873
scalar Network800.node720 	discovery_resolution_rate 	33.333333333333
scalar Network800.node270 	rate_of_requesters 	1
scalar Network800.node270 	number_of_resources 	44000
scalar Network800.node270 	time_period 	3
scalar Network800.node270 	number_of_messages 	2
scalar Network800.node270 	discovery_latency 	5916
scalar Network800.node270 	number_of_desired_resources 	20
scalar Network800.node270 	query_homogenity_rate 	33.333333333333
scalar Network800.node270 	qrecord_time 	13823.106250983
scalar Network800.node270 	discovery_resolution_rate 	0
scalar Network800.node790 	rate_of_requesters 	1
scalar Network800.node790 	number_of_resources 	44000
scalar Network800.node790 	time_period 	3
scalar Network800.node790 	number_of_messages 	2
scalar Network800.node790 	discovery_latency 	5916
scalar Network800.node790 	number_of_desired_resources 	20
scalar Network800.node790 	query_homogenity_rate 	33.333333333333
scalar Network800.node790 	qrecord_time 	13915.922046986
scalar Network800.node790 	discovery_resolution_rate 	0
scalar Network800.node770 	rate_of_requesters 	1
scalar Network800.node770 	number_of_resources 	44000
scalar Network800.node770 	time_period 	3
scalar Network800.node770 	number_of_messages 	2
scalar Network800.node770 	discovery_latency 	6060
scalar Network800.node770 	number_of_desired_resources 	20
scalar Network800.node770 	query_homogenity_rate 	33.333333333333
scalar Network800.node770 	qrecord_time 	14000.550370474
scalar Network800.node770 	discovery_resolution_rate 	0
scalar Network800.node30 	rate_of_requesters 	1
scalar Network800.node30 	number_of_resources 	44000
scalar Network800.node30 	time_period 	7
scalar Network800.node30 	number_of_messages 	68
scalar Network800.node30 	discovery_latency 	4224
scalar Network800.node30 	number_of_desired_resources 	20
scalar Network800.node30 	query_homogenity_rate 	33.333333333333
scalar Network800.node30 	qrecord_time 	14119.759072845
scalar Network800.node30 	discovery_resolution_rate 	33.333333333333
scalar Network800.node110 	rate_of_requesters 	1
scalar Network800.node110 	number_of_resources 	44000
scalar Network800.node110 	time_period 	3
scalar Network800.node110 	number_of_messages 	2
scalar Network800.node110 	discovery_latency 	6048
scalar Network800.node110 	number_of_desired_resources 	20
scalar Network800.node110 	query_homogenity_rate 	33.333333333333
scalar Network800.node110 	qrecord_time 	14159.753213638
scalar Network800.node110 	discovery_resolution_rate 	0
scalar Network800.node180 	rate_of_requesters 	1
scalar Network800.node180 	number_of_resources 	44000
scalar Network800.node180 	time_period 	3
scalar Network800.node180 	number_of_messages 	94
scalar Network800.node180 	discovery_latency 	4128
scalar Network800.node180 	number_of_desired_resources 	20
scalar Network800.node180 	query_homogenity_rate 	33.333333333333
scalar Network800.node180 	qrecord_time 	14163.149804352
scalar Network800.node180 	discovery_resolution_rate 	33.333333333333
scalar Network800.node250 	rate_of_requesters 	1
scalar Network800.node250 	number_of_resources 	44000
scalar Network800.node250 	time_period 	4
scalar Network800.node250 	number_of_messages 	2
scalar Network800.node250 	discovery_latency 	5832
scalar Network800.node250 	number_of_desired_resources 	20
scalar Network800.node250 	query_homogenity_rate 	33.333333333333
scalar Network800.node250 	qrecord_time 	14172.816414371
scalar Network800.node250 	discovery_resolution_rate 	0
scalar Network800.node30 	rate_of_requesters 	1
scalar Network800.node30 	number_of_resources 	44000
scalar Network800.node30 	time_period 	6
scalar Network800.node30 	number_of_messages 	2
scalar Network800.node30 	discovery_latency 	6024
scalar Network800.node30 	number_of_desired_resources 	20
scalar Network800.node30 	query_homogenity_rate 	33.333333333333
scalar Network800.node30 	qrecord_time 	14207.365968683
scalar Network800.node30 	discovery_resolution_rate 	0
scalar Network800.node350 	rate_of_requesters 	1
scalar Network800.node350 	number_of_resources 	44000
scalar Network800.node350 	time_period 	2
scalar Network800.node350 	number_of_messages 	2
scalar Network800.node350 	discovery_latency 	5928
scalar Network800.node350 	number_of_desired_resources 	20
scalar Network800.node350 	query_homogenity_rate 	33.333333333333
scalar Network800.node350 	qrecord_time 	14243.866519253
scalar Network800.node350 	discovery_resolution_rate 	0
scalar Network800.node580 	rate_of_requesters 	1
scalar Network800.node580 	number_of_resources 	44000
scalar Network800.node580 	time_period 	5
scalar Network800.node580 	number_of_messages 	2
scalar Network800.node580 	discovery_latency 	6192
scalar Network800.node580 	number_of_desired_resources 	20
scalar Network800.node580 	query_homogenity_rate 	33.333333333333
scalar Network800.node580 	qrecord_time 	14287.2710627
scalar Network800.node580 	discovery_resolution_rate 	0
scalar Network800.node710 	rate_of_requesters 	1
scalar Network800.node710 	number_of_resources 	44000
scalar Network800.node710 	time_period 	3
scalar Network800.node710 	number_of_messages 	2
scalar Network800.node710 	discovery_latency 	5916
scalar Network800.node710 	number_of_desired_resources 	20
scalar Network800.node710 	query_homogenity_rate 	33.333333333333
scalar Network800.node710 	qrecord_time 	14298.019442116
scalar Network800.node710 	discovery_resolution_rate 	0
scalar Network800.node340 	rate_of_requesters 	1
scalar Network800.node340 	number_of_resources 	44000
scalar Network800.node340 	time_period 	3
scalar Network800.node340 	number_of_messages 	2
scalar Network800.node340 	discovery_latency 	5712
scalar Network800.node340 	number_of_desired_resources 	20
scalar Network800.node340 	query_homogenity_rate 	33.333333333333
scalar Network800.node340 	qrecord_time 	14412.206032389
scalar Network800.node340 	discovery_resolution_rate 	0
scalar Network800.node610 	rate_of_requesters 	1
scalar Network800.node610 	number_of_resources 	44000
scalar Network800.node610 	time_period 	3
scalar Network800.node610 	number_of_messages 	0
scalar Network800.node610 	discovery_latency 	5916
scalar Network800.node610 	number_of_desired_resources 	20
scalar Network800.node610 	query_homogenity_rate 	33.333333333333
scalar Network800.node610 	qrecord_time 	14446.889384597
scalar Network800.node610 	discovery_resolution_rate 	0
scalar Network800.node480 	rate_of_requesters 	1
scalar Network800.node480 	number_of_resources 	44000
scalar Network800.node480 	time_period 	3
scalar Network800.node480 	number_of_messages 	167
scalar Network800.node480 	discovery_latency 	4212
scalar Network800.node480 	number_of_desired_resources 	20
scalar Network800.node480 	query_homogenity_rate 	33.333333333333
scalar Network800.node480 	qrecord_time 	14478.659282176
scalar Network800.node480 	discovery_resolution_rate 	33.333333333333
scalar Network800.node230 	rate_of_requesters 	1
scalar Network800.node230 	number_of_resources 	44000
scalar Network800.node230 	time_period 	4
scalar Network800.node230 	number_of_messages 	2
scalar Network800.node230 	discovery_latency 	6048
scalar Network800.node230 	number_of_desired_resources 	20
scalar Network800.node230 	query_homogenity_rate 	33.333333333333
scalar Network800.node230 	qrecord_time 	14486.600400506
scalar Network800.node230 	discovery_resolution_rate 	0
scalar Network800.node390 	rate_of_requesters 	1
scalar Network800.node390 	number_of_resources 	44000
scalar Network800.node390 	time_period 	2
scalar Network800.node390 	number_of_messages 	27
scalar Network800.node390 	discovery_latency 	4284
scalar Network800.node390 	number_of_desired_resources 	20
scalar Network800.node390 	query_homogenity_rate 	33.333333333333
scalar Network800.node390 	qrecord_time 	14503.825007067
scalar Network800.node390 	discovery_resolution_rate 	33.333333333333
scalar Network800.node350 	rate_of_requesters 	1
scalar Network800.node350 	number_of_resources 	44000
scalar Network800.node350 	time_period 	3
scalar Network800.node350 	number_of_messages 	2
scalar Network800.node350 	discovery_latency 	5988
scalar Network800.node350 	number_of_desired_resources 	20
scalar Network800.node350 	query_homogenity_rate 	33.333333333333
scalar Network800.node350 	qrecord_time 	14558.30763724
scalar Network800.node350 	discovery_resolution_rate 	0
scalar Network800.node750 	rate_of_requesters 	1
scalar Network800.node750 	number_of_resources 	44000
scalar Network800.node750 	time_period 	3
scalar Network800.node750 	number_of_messages 	44
scalar Network800.node750 	discovery_latency 	4152
scalar Network800.node750 	number_of_desired_resources 	20
scalar Network800.node750 	query_homogenity_rate 	33.333333333333
scalar Network800.node750 	qrecord_time 	14562.810290126
scalar Network800.node750 	discovery_resolution_rate 	33.333333333333
scalar Network800.node110 	rate_of_requesters 	1
scalar Network800.node110 	number_of_resources 	44000
[...]
scalar Network800.node120 	qrecord_time 	52304.447661095
scalar Network800.node120 	discovery_resolution_rate 	66.666666666667
scalar Network800.node330 	rate_of_requesters 	1
scalar Network800.node330 	number_of_resources 	44000
scalar Network800.node330 	time_period 	10
scalar Network800.node330 	number_of_messages 	18
scalar Network800.node330 	discovery_latency 	4224
scalar Network800.node330 	number_of_desired_resources 	20
scalar Network800.node330 	query_homogenity_rate 	33.333333333333
scalar Network800.node330 	qrecord_time 	52618.317539716
scalar Network800.node330 	discovery_resolution_rate 	33.333333333333
scalar Network800.node350 	rate_of_requesters 	1
scalar Network800.node350 	number_of_resources 	44000
scalar Network800.node350 	time_period 	8
scalar Network800.node350 	number_of_messages 	17
scalar Network800.node350 	discovery_latency 	4164
scalar Network800.node350 	number_of_desired_resources 	20
scalar Network800.node350 	query_homogenity_rate 	33.333333333333
scalar Network800.node350 	qrecord_time 	52759.338673032
scalar Network800.node350 	discovery_resolution_rate 	33.333333333333
scalar Network800.node350 	rate_of_requesters 	1
scalar Network800.node350 	number_of_resources 	44000
scalar Network800.node350 	time_period 	9
scalar Network800.node350 	number_of_messages 	23
scalar Network800.node350 	discovery_latency 	4296
scalar Network800.node350 	number_of_desired_resources 	20
scalar Network800.node350 	query_homogenity_rate 	33.333333333333
scalar Network800.node350 	qrecord_time 	53281.904373227
scalar Network800.node350 	discovery_resolution_rate 	33.333333333333
scalar Network800.node620 	rate_of_requesters 	1
scalar Network800.node620 	number_of_resources 	44000
scalar Network800.node620 	time_period 	10
scalar Network800.node620 	number_of_messages 	25
scalar Network800.node620 	discovery_latency 	4416
scalar Network800.node620 	number_of_desired_resources 	20
scalar Network800.node620 	query_homogenity_rate 	33.333333333333
scalar Network800.node620 	qrecord_time 	53373.499572073
scalar Network800.node620 	discovery_resolution_rate 	33.333333333333
scalar Network800.node180 	rate_of_requesters 	1
scalar Network800.node180 	number_of_resources 	44000
scalar Network800.node180 	time_period 	9
scalar Network800.node180 	number_of_messages 	30
scalar Network800.node180 	discovery_latency 	4140
scalar Network800.node180 	number_of_desired_resources 	20
scalar Network800.node180 	query_homogenity_rate 	33.333333333333
scalar Network800.node180 	qrecord_time 	53379.74752834
scalar Network800.node180 	discovery_resolution_rate 	66.666666666667
scalar Network800.node450 	rate_of_requesters 	1
scalar Network800.node450 	number_of_resources 	44000
scalar Network800.node450 	time_period 	10
scalar Network800.node450 	number_of_messages 	35
scalar Network800.node450 	discovery_latency 	4128
scalar Network800.node450 	number_of_desired_resources 	20
scalar Network800.node450 	query_homogenity_rate 	33.333333333333
scalar Network800.node450 	qrecord_time 	53814.846254084
scalar Network800.node450 	discovery_resolution_rate 	66.666666666667
scalar Network800.node310 	rate_of_requesters 	1
scalar Network800.node310 	number_of_resources 	44000
scalar Network800.node310 	time_period 	10
scalar Network800.node310 	number_of_messages 	43
scalar Network800.node310 	discovery_latency 	4068
scalar Network800.node310 	number_of_desired_resources 	20
scalar Network800.node310 	query_homogenity_rate 	33.333333333333
scalar Network800.node310 	qrecord_time 	53857.364008602
scalar Network800.node310 	discovery_resolution_rate 	66.666666666667
scalar Network800.node350 	rate_of_requesters 	1
scalar Network800.node350 	number_of_resources 	44000
scalar Network800.node350 	time_period 	10
scalar Network800.node350 	number_of_messages 	236
scalar Network800.node350 	discovery_latency 	4260
scalar Network800.node350 	number_of_desired_resources 	20
scalar Network800.node350 	query_homogenity_rate 	33.333333333333
scalar Network800.node350 	qrecord_time 	54377.029981393
scalar Network800.node350 	discovery_resolution_rate 	83.333333333333
scalar Network800.node160 	rate_of_requesters 	1
scalar Network800.node160 	number_of_resources 	44000
scalar Network800.node160 	time_period 	9
scalar Network800.node160 	number_of_messages 	28
scalar Network800.node160 	discovery_latency 	4308
scalar Network800.node160 	number_of_desired_resources 	20
scalar Network800.node160 	query_homogenity_rate 	33.333333333333
scalar Network800.node160 	qrecord_time 	54975.448684874
scalar Network800.node160 	discovery_resolution_rate 	66.666666666667
scalar Network800.node680 	rate_of_requesters 	1
scalar Network800.node680 	number_of_resources 	44000
scalar Network800.node680 	time_period 	8
scalar Network800.node680 	number_of_messages 	22
scalar Network800.node680 	discovery_latency 	4128
scalar Network800.node680 	number_of_desired_resources 	20
scalar Network800.node680 	query_homogenity_rate 	33.333333333333
scalar Network800.node680 	qrecord_time 	55613.275656362
scalar Network800.node680 	discovery_resolution_rate 	66.666666666667
scalar Network800.node430 	rate_of_requesters 	1
scalar Network800.node430 	number_of_resources 	44000
scalar Network800.node430 	time_period 	6
scalar Network800.node430 	number_of_messages 	15
scalar Network800.node430 	discovery_latency 	4284
scalar Network800.node430 	number_of_desired_resources 	20
scalar Network800.node430 	query_homogenity_rate 	33.333333333333
scalar Network800.node430 	qrecord_time 	55924.590220711
scalar Network800.node430 	discovery_resolution_rate 	66.666666666667
scalar Network800.node780 	rate_of_requesters 	1
scalar Network800.node780 	number_of_resources 	44000
scalar Network800.node780 	time_period 	8
scalar Network800.node780 	number_of_messages 	16
scalar Network800.node780 	discovery_latency 	4044
scalar Network800.node780 	number_of_desired_resources 	20
scalar Network800.node780 	query_homogenity_rate 	33.333333333333
scalar Network800.node780 	qrecord_time 	56451.089230588
scalar Network800.node780 	discovery_resolution_rate 	66.666666666667
scalar Network800.node780 	rate_of_requesters 	1
scalar Network800.node780 	number_of_resources 	44000
scalar Network800.node780 	time_period 	9
scalar Network800.node780 	number_of_messages 	17
scalar Network800.node780 	discovery_latency 	4212
scalar Network800.node780 	number_of_desired_resources 	20
scalar Network800.node780 	query_homogenity_rate 	33.333333333333
scalar Network800.node780 	qrecord_time 	56660.564189226
scalar Network800.node780 	discovery_resolution_rate 	66.666666666667
scalar Network800.node680 	rate_of_requesters 	1
scalar Network800.node680 	number_of_resources 	44000
scalar Network800.node680 	time_period 	9
scalar Network800.node680 	number_of_messages 	20
scalar Network800.node680 	discovery_latency 	4140
scalar Network800.node680 	number_of_desired_resources 	20
scalar Network800.node680 	query_homogenity_rate 	33.333333333333
scalar Network800.node680 	qrecord_time 	57253.472960143
scalar Network800.node680 	discovery_resolution_rate 	66.666666666667
scalar Network800.node400 	rate_of_requesters 	1
scalar Network800.node400 	number_of_resources 	44000
scalar Network800.node400 	time_period 	9
scalar Network800.node400 	number_of_messages 	23
scalar Network800.node400 	discovery_latency 	4224
scalar Network800.node400 	number_of_desired_resources 	20
scalar Network800.node400 	query_homogenity_rate 	33.333333333333
scalar Network800.node400 	qrecord_time 	57255.201352293
scalar Network800.node400 	discovery_resolution_rate 	66.666666666667
scalar Network800.node400 	rate_of_requesters 	1
scalar Network800.node400 	number_of_resources 	44000
scalar Network800.node400 	time_period 	10
scalar Network800.node400 	number_of_messages 	29
scalar Network800.node400 	discovery_latency 	4236
scalar Network800.node400 	number_of_desired_resources 	20
scalar Network800.node400 	query_homogenity_rate 	33.333333333333
scalar Network800.node400 	qrecord_time 	57493.459873341
scalar Network800.node400 	discovery_resolution_rate 	66.666666666667
scalar Network800.node780 	rate_of_requesters 	1
scalar Network800.node780 	number_of_resources 	44000
scalar Network800.node780 	time_period 	10
scalar Network800.node780 	number_of_messages 	35
scalar Network800.node780 	discovery_latency 	4188
scalar Network800.node780 	number_of_desired_resources 	20
scalar Network800.node780 	query_homogenity_rate 	33.333333333333
scalar Network800.node780 	qrecord_time 	57674.558326993
scalar Network800.node780 	discovery_resolution_rate 	66.666666666667
scalar Network800.node430 	rate_of_requesters 	1
scalar Network800.node430 	number_of_resources 	44000
scalar Network800.node430 	time_period 	7
scalar Network800.node430 	number_of_messages 	181
scalar Network800.node430 	discovery_latency 	4260
scalar Network800.node430 	number_of_desired_resources 	20
scalar Network800.node430 	query_homogenity_rate 	33.333333333333
scalar Network800.node430 	qrecord_time 	57901.639496692
scalar Network800.node430 	discovery_resolution_rate 	50
scalar Network800.node250 	rate_of_requesters 	1
scalar Network800.node250 	number_of_resources 	44000
scalar Network800.node250 	time_period 	9
scalar Network800.node250 	number_of_messages 	4
scalar Network800.node250 	discovery_latency 	4248
scalar Network800.node250 	number_of_desired_resources 	20
scalar Network800.node250 	query_homogenity_rate 	33.333333333333
scalar Network800.node250 	qrecord_time 	58096.775656286
scalar Network800.node250 	discovery_resolution_rate 	33.333333333333
scalar Network800.node600 	rate_of_requesters 	1
scalar Network800.node600 	number_of_resources 	44000
scalar Network800.node600 	time_period 	9
scalar Network800.node600 	number_of_messages 	9
scalar Network800.node600 	discovery_latency 	4536
scalar Network800.node600 	number_of_desired_resources 	20
scalar Network800.node600 	query_homogenity_rate 	33.333333333333
scalar Network800.node600 	qrecord_time 	58319.246963392
scalar Network800.node600 	discovery_resolution_rate 	33.333333333333
scalar Network800.node680 	rate_of_requesters 	1
scalar Network800.node680 	number_of_resources 	44000
scalar Network800.node680 	time_period 	10
scalar Network800.node680 	number_of_messages 	14
scalar Network800.node680 	discovery_latency 	4128
scalar Network800.node680 	number_of_desired_resources 	20
scalar Network800.node680 	query_homogenity_rate 	33.333333333333
scalar Network800.node680 	qrecord_time 	58634.821308634
scalar Network800.node680 	discovery_resolution_rate 	33.333333333333
scalar Network800.node250 	rate_of_requesters 	1
scalar Network800.node250 	number_of_resources 	44000
scalar Network800.node250 	time_period 	10
scalar Network800.node250 	number_of_messages 	4
scalar Network800.node250 	discovery_latency 	4272
scalar Network800.node250 	number_of_desired_resources 	20
scalar Network800.node250 	query_homogenity_rate 	33.333333333333
scalar Network800.node250 	qrecord_time 	58961.988777433
scalar Network800.node250 	discovery_resolution_rate 	33.333333333333
scalar Network800.node430 	rate_of_requesters 	1
scalar Network800.node430 	number_of_resources 	44000
scalar Network800.node430 	time_period 	8
scalar Network800.node430 	number_of_messages 	32
scalar Network800.node430 	discovery_latency 	384
scalar Network800.node430 	number_of_desired_resources 	20
scalar Network800.node430 	query_homogenity_rate 	33.333333333333
scalar Network800.node430 	qrecord_time 	59149.815737296
scalar Network800.node430 	discovery_resolution_rate 	100
scalar Network800.node770 	rate_of_requesters 	1
scalar Network800.node770 	number_of_resources 	44000
scalar Network800.node770 	time_period 	9
scalar Network800.node770 	number_of_messages 	11
scalar Network800.node770 	discovery_latency 	4248
scalar Network800.node770 	number_of_desired_resources 	20
scalar Network800.node770 	query_homogenity_rate 	33.333333333333
scalar Network800.node770 	qrecord_time 	59209.725270514
scalar Network800.node770 	discovery_resolution_rate 	33.333333333333
scalar Network800.node160 	rate_of_requesters 	1
scalar Network800.node160 	number_of_resources 	44000
scalar Network800.node160 	time_period 	10
scalar Network800.node160 	number_of_messages 	61
scalar Network800.node160 	discovery_latency 	4140
scalar Network800.node160 	number_of_desired_resources 	20
scalar Network800.node160 	query_homogenity_rate 	33.333333333333
scalar Network800.node160 	qrecord_time 	60306.417731441
scalar Network800.node160 	discovery_resolution_rate 	66.666666666667
scalar Network800.node120 	rate_of_requesters 	1
scalar Network800.node120 	number_of_resources 	44000
scalar Network800.node120 	time_period 	10
scalar Network800.node120 	number_of_messages 	40
scalar Network800.node120 	discovery_latency 	4248
scalar Network800.node120 	number_of_desired_resources 	20
scalar Network800.node120 	query_homogenity_rate 	33.333333333333
scalar Network800.node120 	qrecord_time 	60765.29147924
scalar Network800.node120 	discovery_resolution_rate 	66.666666666667
scalar Network800.node470 	rate_of_requesters 	1
scalar Network800.node470 	number_of_resources 	44000
scalar Network800.node470 	time_period 	10
scalar Network800.node470 	number_of_messages 	17
scalar Network800.node470 	discovery_latency 	3984
scalar Network800.node470 	number_of_desired_resources 	20
scalar Network800.node470 	query_homogenity_rate 	33.333333333333
scalar Network800.node470 	qrecord_time 	60905.79718271
scalar Network800.node470 	discovery_resolution_rate 	66.666666666667
scalar Network800.node540 	rate_of_requesters 	1
scalar Network800.node540 	number_of_resources 	44000
scalar Network800.node540 	time_period 	9
scalar Network800.node540 	number_of_messages 	26
scalar Network800.node540 	discovery_latency 	4164
scalar Network800.node540 	number_of_desired_resources 	20
scalar Network800.node540 	query_homogenity_rate 	33.333333333333
scalar Network800.node540 	qrecord_time 	61119.93146259
scalar Network800.node540 	discovery_resolution_rate 	66.666666666667
scalar Network800.node560 	rate_of_requesters 	1
scalar Network800.node560 	number_of_resources 	44000
scalar Network800.node560 	time_period 	10
scalar Network800.node560 	number_of_messages 	187
scalar Network800.node560 	discovery_latency 	4284
scalar Network800.node560 	number_of_desired_resources 	20
scalar Network800.node560 	query_homogenity_rate 	33.333333333333
scalar Network800.node560 	qrecord_time 	61678.941903109
scalar Network800.node560 	discovery_resolution_rate 	50
scalar Network800.node590 	rate_of_requesters 	1
scalar Network800.node590 	number_of_resources 	44000
scalar Network800.node590 	time_period 	9
scalar Network800.node590 	number_of_messages 	5
scalar Network800.node590 	discovery_latency 	4284
scalar Network800.node590 	number_of_desired_resources 	20
scalar Network800.node590 	query_homogenity_rate 	33.333333333333
scalar Network800.node590 	qrecord_time 	62019.987699289
scalar Network800.node590 	discovery_resolution_rate 	33.333333333333
scalar Network800.node600 	rate_of_requesters 	1
scalar Network800.node600 	number_of_resources 	44000
scalar Network800.node600 	time_period 	10
scalar Network800.node600 	number_of_messages 	191
scalar Network800.node600 	discovery_latency 	4212
scalar Network800.node600 	number_of_desired_resources 	20
scalar Network800.node600 	query_homogenity_rate 	33.333333333333
scalar Network800.node600 	qrecord_time 	62233.898279529
scalar Network800.node600 	discovery_resolution_rate 	50
scalar Network800.node180 	rate_of_requesters 	1
scalar Network800.node180 	number_of_resources 	44000
scalar Network800.node180 	time_period 	10
scalar Network800.node180 	number_of_messages 	9
scalar Network800.node180 	discovery_latency 	4272
scalar Network800.node180 	number_of_desired_resources 	20
scalar Network800.node180 	query_homogenity_rate 	33.333333333333
scalar Network800.node180 	qrecord_time 	62236.329015447
scalar Network800.node180 	discovery_resolution_rate 	33.333333333333
scalar Network800.node540 	rate_of_requesters 	1
scalar Network800.node540 	number_of_resources 	44000
scalar Network800.node540 	time_period 	10
scalar Network800.node540 	number_of_messages 	40
scalar Network800.node540 	discovery_latency 	492
scalar Network800.node540 	number_of_desired_resources 	20
scalar Network800.node540 	query_homogenity_rate 	33.333333333333
scalar Network800.node540 	qrecord_time 	62444.047823703
scalar Network800.node540 	discovery_resolution_rate 	100
scalar Network800.node40 	rate_of_requesters 	1
scalar Network800.node40 	number_of_resources 	44000
scalar Network800.node40 	time_period 	10
scalar Network800.node40 	number_of_messages 	73
scalar Network800.node40 	discovery_latency 	1464
scalar Network800.node40 	number_of_desired_resources 	20
scalar Network800.node40 	query_homogenity_rate 	33.333333333333
scalar Network800.node40 	qrecord_time 	62786.410694191
scalar Network800.node40 	discovery_resolution_rate 	100
scalar Network800.node770 	rate_of_requesters 	1
scalar Network800.node770 	number_of_resources 	44000
scalar Network800.node770 	time_period 	10
scalar Network800.node770 	number_of_messages 	20
scalar Network800.node770 	discovery_latency 	4080
scalar Network800.node770 	number_of_desired_resources 	20
scalar Network800.node770 	query_homogenity_rate 	33.333333333333
scalar Network800.node770 	qrecord_time 	62925.360061636
scalar Network800.node770 	discovery_resolution_rate 	66.666666666667
scalar Network800.node40 	rate_of_requesters 	1
scalar Network800.node40 	number_of_resources 	44000
scalar Network800.node40 	time_period 	9
scalar Network800.node40 	number_of_messages 	22
scalar Network800.node40 	discovery_latency 	4068
scalar Network800.node40 	number_of_desired_resources 	20
scalar Network800.node40 	query_homogenity_rate 	33.333333333333
scalar Network800.node40 	qrecord_time 	63284.604040532
scalar Network800.node40 	discovery_resolution_rate 	66.666666666667
scalar Network800.node690 	rate_of_requesters 	1
scalar Network800.node690 	number_of_resources 	44000
scalar Network800.node690 	time_period 	10
scalar Network800.node690 	number_of_messages 	33
scalar Network800.node690 	discovery_latency 	371.99999999999
scalar Network800.node690 	number_of_desired_resources 	20
scalar Network800.node690 	query_homogenity_rate 	33.333333333333
scalar Network800.node690 	qrecord_time 	64351.669466314
scalar Network800.node690 	discovery_resolution_rate 	100
scalar Network800.node590 	rate_of_requesters 	1
scalar Network800.node590 	number_of_resources 	44000
scalar Network800.node590 	time_period 	10
scalar Network800.node590 	number_of_messages 	25
scalar Network800.node590 	discovery_latency 	336
scalar Network800.node590 	number_of_desired_resources 	20
scalar Network800.node590 	query_homogenity_rate 	33.333333333333
scalar Network800.node590 	qrecord_time 	65992.186733849
scalar Network800.node590 	discovery_resolution_rate 	100
scalar Network800.node430 	rate_of_requesters 	1
scalar Network800.node430 	number_of_resources 	44000
scalar Network800.node430 	time_period 	10
scalar Network800.node430 	number_of_messages 	32
scalar Network800.node430 	discovery_latency 	384
scalar Network800.node430 	number_of_desired_resources 	20
scalar Network800.node430 	query_homogenity_rate 	33.333333333333
scalar Network800.node430 	qrecord_time 	68915.268400434
scalar Network800.node430 	discovery_resolution_rate 	100
scalar Network800.node430 	rate_of_requesters 	1
scalar Network800.node430 	number_of_resources 	44000
scalar Network800.node430 	time_period 	9
scalar Network800.node430 	number_of_messages 	186
scalar Network800.node430 	discovery_latency 	4164
scalar Network800.node430 	number_of_desired_resources 	20
scalar Network800.node430 	query_homogenity_rate 	33.333333333333
scalar Network800.node430 	qrecord_time 	71233.583580956
scalar Network800.node430 	discovery_resolution_rate 	83.333333333333
