version 2
run net800-0-20150717-03:31:07-29583
attr as 1
attr configname net800
attr datetime 20150717-03:31:07
attr dnor 20
attr experiment net800
attr inifile omnetpp.ini
attr iterationvars "$rhdrq=3, $dnor=20, $as=1"
attr iterationvars2 "$rhdrq=3, $dnor=20, $as=1, $repetition=0"
attr measurement "$rhdrq=3, $dnor=20, $as=1"
attr network Network800
attr processid 29583
attr repetition 0
attr replication #0
attr resultdir results
attr rhdrq 3
attr runnumber 0
attr seedset 0

scalar . 	as 	1
scalar . 	dnor 	20
scalar . 	rhdrq 	3
scalar Network800.node550 	rate_of_requesters 	1
scalar Network800.node550 	number_of_resources 	44000
scalar Network800.node550 	time_period 	1
scalar Network800.node550 	number_of_messages 	48
scalar Network800.node550 	discovery_latency 	660
scalar Network800.node550 	number_of_desired_resources 	20
scalar Network800.node550 	query_homogenity_rate 	33.333333333333
scalar Network800.node550 	qrecord_time 	5350
scalar Network800.node550 	discovery_resolution_rate 	100
scalar Network800.node30 	rate_of_requesters 	1
scalar Network800.node30 	number_of_resources 	44000
scalar Network800.node30 	time_period 	1
scalar Network800.node30 	number_of_messages 	14
scalar Network800.node30 	discovery_latency 	4488
scalar Network800.node30 	number_of_desired_resources 	20
scalar Network800.node30 	query_homogenity_rate 	33.333333333333
scalar Network800.node30 	qrecord_time 	9244
scalar Network800.node30 	discovery_resolution_rate 	66.666666666667
scalar Network800.node260 	rate_of_requesters 	1
scalar Network800.node260 	number_of_resources 	44000
scalar Network800.node260 	time_period 	1
scalar Network800.node260 	number_of_messages 	109
scalar Network800.node260 	discovery_latency 	4536
scalar Network800.node260 	number_of_desired_resources 	20
scalar Network800.node260 	query_homogenity_rate 	33.333333333333
scalar Network800.node260 	qrecord_time 	9268
scalar Network800.node260 	discovery_resolution_rate 	66.666666666667
scalar Network800.node70 	rate_of_requesters 	1
scalar Network800.node70 	number_of_resources 	44000
scalar Network800.node70 	time_period 	1
scalar Network800.node70 	number_of_messages 	103
scalar Network800.node70 	discovery_latency 	4620
scalar Network800.node70 	number_of_desired_resources 	20
scalar Network800.node70 	query_homogenity_rate 	33.333333333333
scalar Network800.node70 	qrecord_time 	9286
scalar Network800.node70 	discovery_resolution_rate 	66.666666666667
scalar Network800.node40 	rate_of_requesters 	1
scalar Network800.node40 	number_of_resources 	44000
scalar Network800.node40 	time_period 	1
scalar Network800.node40 	number_of_messages 	35
scalar Network800.node40 	discovery_latency 	4560
scalar Network800.node40 	number_of_desired_resources 	20
scalar Network800.node40 	query_homogenity_rate 	33.333333333333
scalar Network800.node40 	qrecord_time 	9328
scalar Network800.node40 	discovery_resolution_rate 	66.666666666667
scalar Network800.node560 	rate_of_requesters 	1
scalar Network800.node560 	number_of_resources 	44000
scalar Network800.node560 	time_period 	1
scalar Network800.node560 	number_of_messages 	15
scalar Network800.node560 	discovery_latency 	4656
scalar Network800.node560 	number_of_desired_resources 	20
scalar Network800.node560 	query_homogenity_rate 	33.333333333333
scalar Network800.node560 	qrecord_time 	9376
scalar Network800.node560 	discovery_resolution_rate 	66.666666666667
scalar Network800.node540 	rate_of_requesters 	1
scalar Network800.node540 	number_of_resources 	44000
scalar Network800.node540 	time_period 	1
scalar Network800.node540 	number_of_messages 	20
scalar Network800.node540 	discovery_latency 	4656
scalar Network800.node540 	number_of_desired_resources 	20
scalar Network800.node540 	query_homogenity_rate 	33.333333333333
scalar Network800.node540 	qrecord_time 	9388
scalar Network800.node540 	discovery_resolution_rate 	66.666666666667
scalar Network800.node720 	rate_of_requesters 	1
scalar Network800.node720 	number_of_resources 	44000
scalar Network800.node720 	time_period 	1
scalar Network800.node720 	number_of_messages 	46
scalar Network800.node720 	discovery_latency 	4680
scalar Network800.node720 	number_of_desired_resources 	20
scalar Network800.node720 	query_homogenity_rate 	33.333333333333
scalar Network800.node720 	qrecord_time 	9388
scalar Network800.node720 	discovery_resolution_rate 	66.666666666667
scalar Network800.node600 	rate_of_requesters 	1
scalar Network800.node600 	number_of_resources 	44000
scalar Network800.node600 	time_period 	1
scalar Network800.node600 	number_of_messages 	14
scalar Network800.node600 	discovery_latency 	4752
scalar Network800.node600 	number_of_desired_resources 	20
scalar Network800.node600 	query_homogenity_rate 	33.333333333333
scalar Network800.node600 	qrecord_time 	9424
scalar Network800.node600 	discovery_resolution_rate 	66.666666666667
scalar Network800.node190 	rate_of_requesters 	1
scalar Network800.node190 	number_of_resources 	44000
scalar Network800.node190 	time_period 	1
scalar Network800.node190 	number_of_messages 	65
scalar Network800.node190 	discovery_latency 	4716
scalar Network800.node190 	number_of_desired_resources 	20
scalar Network800.node190 	query_homogenity_rate 	33.333333333333
scalar Network800.node190 	qrecord_time 	9448
scalar Network800.node190 	discovery_resolution_rate 	66.666666666667
scalar Network800.node660 	rate_of_requesters 	1
scalar Network800.node660 	number_of_resources 	44000
scalar Network800.node660 	time_period 	1
scalar Network800.node660 	number_of_messages 	22
scalar Network800.node660 	discovery_latency 	4740
scalar Network800.node660 	number_of_desired_resources 	20
scalar Network800.node660 	query_homogenity_rate 	33.333333333333
scalar Network800.node660 	qrecord_time 	9454
scalar Network800.node660 	discovery_resolution_rate 	66.666666666667
scalar Network800.node630 	rate_of_requesters 	1
scalar Network800.node630 	number_of_resources 	44000
scalar Network800.node630 	time_period 	1
scalar Network800.node630 	number_of_messages 	15
scalar Network800.node630 	discovery_latency 	4764
scalar Network800.node630 	number_of_desired_resources 	20
scalar Network800.node630 	query_homogenity_rate 	33.333333333333
scalar Network800.node630 	qrecord_time 	9514
scalar Network800.node630 	discovery_resolution_rate 	66.666666666667
scalar Network800.node130 	rate_of_requesters 	1
scalar Network800.node130 	number_of_resources 	44000
scalar Network800.node130 	time_period 	1
scalar Network800.node130 	number_of_messages 	9
scalar Network800.node130 	discovery_latency 	4740
scalar Network800.node130 	number_of_desired_resources 	20
scalar Network800.node130 	query_homogenity_rate 	33.333333333333
scalar Network800.node130 	qrecord_time 	9514
scalar Network800.node130 	discovery_resolution_rate 	33.333333333333
scalar Network800.node740 	rate_of_requesters 	1
scalar Network800.node740 	number_of_resources 	44000
scalar Network800.node740 	time_period 	1
scalar Network800.node740 	number_of_messages 	11
scalar Network800.node740 	discovery_latency 	4812
scalar Network800.node740 	number_of_desired_resources 	20
scalar Network800.node740 	query_homogenity_rate 	33.333333333333
scalar Network800.node740 	qrecord_time 	9520
scalar Network800.node740 	discovery_resolution_rate 	66.666666666667
scalar Network800.node320 	rate_of_requesters 	1
scalar Network800.node320 	number_of_resources 	44000
scalar Network800.node320 	time_period 	1
scalar Network800.node320 	number_of_messages 	67
scalar Network800.node320 	discovery_latency 	4848
scalar Network800.node320 	number_of_desired_resources 	20
scalar Network800.node320 	query_homogenity_rate 	33.333333333333
scalar Network800.node320 	qrecord_time 	9538
scalar Network800.node320 	discovery_resolution_rate 	66.666666666667
scalar Network800.node760 	rate_of_requesters 	1
scalar Network800.node760 	number_of_resources 	44000
scalar Network800.node760 	time_period 	1
scalar Network800.node760 	number_of_messages 	25
scalar Network800.node760 	discovery_latency 	4800
scalar Network800.node760 	number_of_desired_resources 	20
scalar Network800.node760 	query_homogenity_rate 	33.333333333333
scalar Network800.node760 	qrecord_time 	9556
scalar Network800.node760 	discovery_resolution_rate 	66.666666666667
scalar Network800.node300 	rate_of_requesters 	1
scalar Network800.node300 	number_of_resources 	44000
scalar Network800.node300 	time_period 	1
scalar Network800.node300 	number_of_messages 	268
scalar Network800.node300 	discovery_latency 	4878
scalar Network800.node300 	number_of_desired_resources 	20
scalar Network800.node300 	query_homogenity_rate 	33.333333333333
scalar Network800.node300 	qrecord_time 	9568
scalar Network800.node300 	discovery_resolution_rate 	50
scalar Network800.node350 	rate_of_requesters 	1
scalar Network800.node350 	number_of_resources 	44000
scalar Network800.node350 	time_period 	1
scalar Network800.node350 	number_of_messages 	8
scalar Network800.node350 	discovery_latency 	4854
scalar Network800.node350 	number_of_desired_resources 	20
scalar Network800.node350 	query_homogenity_rate 	33.333333333333
scalar Network800.node350 	qrecord_time 	9568
scalar Network800.node350 	discovery_resolution_rate 	33.333333333333
scalar Network800.node120 	rate_of_requesters 	1
scalar Network800.node120 	number_of_resources 	44000
scalar Network800.node120 	time_period 	1
scalar Network800.node120 	number_of_messages 	229
scalar Network800.node120 	discovery_latency 	4854
scalar Network800.node120 	number_of_desired_resources 	20
scalar Network800.node120 	query_homogenity_rate 	33.333333333333
scalar Network800.node120 	qrecord_time 	9574
scalar Network800.node120 	discovery_resolution_rate 	50
scalar Network800.node580 	rate_of_requesters 	1
scalar Network800.node580 	number_of_resources 	44000
scalar Network800.node580 	time_period 	1
scalar Network800.node580 	number_of_messages 	15
scalar Network800.node580 	discovery_latency 	4806
scalar Network800.node580 	number_of_desired_resources 	20
scalar Network800.node580 	query_homogenity_rate 	33.333333333333
scalar Network800.node580 	qrecord_time 	9580
scalar Network800.node580 	discovery_resolution_rate 	33.333333333333
scalar Network800.node360 	rate_of_requesters 	1
scalar Network800.node360 	number_of_resources 	44000
scalar Network800.node360 	time_period 	1
scalar Network800.node360 	number_of_messages 	8
scalar Network800.node360 	discovery_latency 	4938
scalar Network800.node360 	number_of_desired_resources 	20
scalar Network800.node360 	query_homogenity_rate 	33.333333333333
scalar Network800.node360 	qrecord_time 	9604
scalar Network800.node360 	discovery_resolution_rate 	33.333333333333
scalar Network800.node280 	rate_of_requesters 	1
scalar Network800.node280 	number_of_resources 	44000
scalar Network800.node280 	time_period 	1
scalar Network800.node280 	number_of_messages 	8
scalar Network800.node280 	discovery_latency 	4890
scalar Network800.node280 	number_of_desired_resources 	20
scalar Network800.node280 	query_homogenity_rate 	33.333333333333
scalar Network800.node280 	qrecord_time 	9622
scalar Network800.node280 	discovery_resolution_rate 	33.333333333333
scalar Network800.node520 	rate_of_requesters 	1
scalar Network800.node520 	number_of_resources 	44000
scalar Network800.node520 	time_period 	2
scalar Network800.node520 	number_of_messages 	55
scalar Network800.node520 	discovery_latency 	4818
scalar Network800.node520 	number_of_desired_resources 	20
scalar Network800.node520 	query_homogenity_rate 	33.333333333333
scalar Network800.node520 	qrecord_time 	9633.207417565
scalar Network800.node520 	discovery_resolution_rate 	33.333333333333
scalar Network800.node340 	rate_of_requesters 	1
scalar Network800.node340 	number_of_resources 	44000
scalar Network800.node340 	time_period 	1
scalar Network800.node340 	number_of_messages 	19
scalar Network800.node340 	discovery_latency 	4974
scalar Network800.node340 	number_of_desired_resources 	20
scalar Network800.node340 	query_homogenity_rate 	33.333333333333
scalar Network800.node340 	qrecord_time 	9640
scalar Network800.node340 	discovery_resolution_rate 	66.666666666667
scalar Network800.node700 	rate_of_requesters 	1
scalar Network800.node700 	number_of_resources 	44000
scalar Network800.node700 	time_period 	1
scalar Network800.node700 	number_of_messages 	98
scalar Network800.node700 	discovery_latency 	4926
scalar Network800.node700 	number_of_desired_resources 	20
scalar Network800.node700 	query_homogenity_rate 	33.333333333333
scalar Network800.node700 	qrecord_time 	9640
scalar Network800.node700 	discovery_resolution_rate 	33.333333333333
scalar Network800.node270 	rate_of_requesters 	1
scalar Network800.node270 	number_of_resources 	44000
scalar Network800.node270 	time_period 	1
scalar Network800.node270 	number_of_messages 	18
scalar Network800.node270 	discovery_latency 	4998
scalar Network800.node270 	number_of_desired_resources 	20
scalar Network800.node270 	query_homogenity_rate 	33.333333333333
scalar Network800.node270 	qrecord_time 	9640
scalar Network800.node270 	discovery_resolution_rate 	66.666666666667
scalar Network800.node100 	rate_of_requesters 	1
scalar Network800.node100 	number_of_resources 	44000
scalar Network800.node100 	time_period 	1
scalar Network800.node100 	number_of_messages 	10
scalar Network800.node100 	discovery_latency 	4974
scalar Network800.node100 	number_of_desired_resources 	20
scalar Network800.node100 	query_homogenity_rate 	33.333333333333
scalar Network800.node100 	qrecord_time 	9688
scalar Network800.node100 	discovery_resolution_rate 	33.333333333333
scalar Network800.node500 	rate_of_requesters 	1
scalar Network800.node500 	number_of_resources 	44000
scalar Network800.node500 	time_period 	1
scalar Network800.node500 	number_of_messages 	15
scalar Network800.node500 	discovery_latency 	4914
scalar Network800.node500 	number_of_desired_resources 	20
scalar Network800.node500 	query_homogenity_rate 	33.333333333333
scalar Network800.node500 	qrecord_time 	9688
scalar Network800.node500 	discovery_resolution_rate 	33.333333333333
scalar Network800.node390 	rate_of_requesters 	1
scalar Network800.node390 	number_of_resources 	44000
scalar Network800.node390 	time_period 	1
scalar Network800.node390 	number_of_messages 	14
scalar Network800.node390 	discovery_latency 	4980
scalar Network800.node390 	number_of_desired_resources 	20
scalar Network800.node390 	query_homogenity_rate 	33.333333333333
scalar Network800.node390 	qrecord_time 	9736
scalar Network800.node390 	discovery_resolution_rate 	66.666666666667
scalar Network800.node370 	rate_of_requesters 	1
scalar Network800.node370 	number_of_resources 	44000
scalar Network800.node370 	time_period 	1
scalar Network800.node370 	number_of_messages 	14
scalar Network800.node370 	discovery_latency 	4986
scalar Network800.node370 	number_of_desired_resources 	20
scalar Network800.node370 	query_homogenity_rate 	33.333333333333
scalar Network800.node370 	qrecord_time 	9736
scalar Network800.node370 	discovery_resolution_rate 	33.333333333333
scalar Network800.node150 	rate_of_requesters 	1
scalar Network800.node150 	number_of_resources 	44000
scalar Network800.node150 	time_period 	1
scalar Network800.node150 	number_of_messages 	94
scalar Network800.node150 	discovery_latency 	4962
scalar Network800.node150 	number_of_desired_resources 	20
scalar Network800.node150 	query_homogenity_rate 	33.333333333333
scalar Network800.node150 	qrecord_time 	9736
scalar Network800.node150 	discovery_resolution_rate 	33.333333333333
scalar Network800.node490 	rate_of_requesters 	1
scalar Network800.node490 	number_of_resources 	44000
scalar Network800.node490 	time_period 	1
scalar Network800.node490 	number_of_messages 	13
scalar Network800.node490 	discovery_latency 	4950
scalar Network800.node490 	number_of_desired_resources 	20
scalar Network800.node490 	query_homogenity_rate 	33.333333333333
scalar Network800.node490 	qrecord_time 	9742
scalar Network800.node490 	discovery_resolution_rate 	33.333333333333
scalar Network800.node520 	rate_of_requesters 	1
scalar Network800.node520 	number_of_resources 	44000
scalar Network800.node520 	time_period 	1
scalar Network800.node520 	number_of_messages 	95
scalar Network800.node520 	discovery_latency 	4938
scalar Network800.node520 	number_of_desired_resources 	20
scalar Network800.node520 	query_homogenity_rate 	33.333333333333
scalar Network800.node520 	qrecord_time 	9748
scalar Network800.node520 	discovery_resolution_rate 	33.333333333333
scalar Network800.node50 	rate_of_requesters 	1
scalar Network800.node50 	number_of_resources 	44000
scalar Network800.node50 	time_period 	1
scalar Network800.node50 	number_of_messages 	13
scalar Network800.node50 	discovery_latency 	4962
scalar Network800.node50 	number_of_desired_resources 	20
scalar Network800.node50 	query_homogenity_rate 	33.333333333333
scalar Network800.node50 	qrecord_time 	9754
scalar Network800.node50 	discovery_resolution_rate 	66.666666666667
scalar Network800.node210 	rate_of_requesters 	1
scalar Network800.node210 	number_of_resources 	44000
scalar Network800.node210 	time_period 	1
scalar Network800.node210 	number_of_messages 	5
scalar Network800.node210 	discovery_latency 	5022
scalar Network800.node210 	number_of_desired_resources 	20
scalar Network800.node210 	query_homogenity_rate 	33.333333333333
scalar Network800.node210 	qrecord_time 	9760
scalar Network800.node210 	discovery_resolution_rate 	33.333333333333
scalar Network800.node450 	rate_of_requesters 	1
scalar Network800.node450 	number_of_resources 	44000
scalar Network800.node450 	time_period 	1
scalar Network800.node450 	number_of_messages 	11
scalar Network800.node450 	discovery_latency 	5058
scalar Network800.node450 	number_of_desired_resources 	20
scalar Network800.node450 	query_homogenity_rate 	33.333333333333
scalar Network800.node450 	qrecord_time 	9796
scalar Network800.node450 	discovery_resolution_rate 	33.333333333333
scalar Network800.node640 	rate_of_requesters 	1
scalar Network800.node640 	number_of_resources 	44000
scalar Network800.node640 	time_period 	1
scalar Network800.node640 	number_of_messages 	12
scalar Network800.node640 	discovery_latency 	5046
scalar Network800.node640 	number_of_desired_resources 	20
scalar Network800.node640 	query_homogenity_rate 	33.333333333333
scalar Network800.node640 	qrecord_time 	9802
scalar Network800.node640 	discovery_resolution_rate 	66.666666666667
scalar Network800.node330 	rate_of_requesters 	1
scalar Network800.node330 	number_of_resources 	44000
scalar Network800.node330 	time_period 	1
scalar Network800.node330 	number_of_messages 	254
scalar Network800.node330 	discovery_latency 	5124
scalar Network800.node330 	number_of_desired_resources 	20
scalar Network800.node330 	query_homogenity_rate 	33.333333333333
scalar Network800.node330 	qrecord_time 	9808
scalar Network800.node330 	discovery_resolution_rate 	16.666666666667
scalar Network800.node750 	rate_of_requesters 	1
scalar Network800.node750 	number_of_resources 	44000
scalar Network800.node750 	time_period 	1
scalar Network800.node750 	number_of_messages 	2
scalar Network800.node750 	discovery_latency 	5100
scalar Network800.node750 	number_of_desired_resources 	20
scalar Network800.node750 	query_homogenity_rate 	33.333333333333
scalar Network800.node750 	qrecord_time 	9832
scalar Network800.node750 	discovery_resolution_rate 	0
scalar Network800.node10 	rate_of_requesters 	1
scalar Network800.node10 	number_of_resources 	44000
scalar Network800.node10 	time_period 	1
scalar Network800.node10 	number_of_messages 	4
scalar Network800.node10 	discovery_latency 	5106
scalar Network800.node10 	number_of_desired_resources 	20
scalar Network800.node10 	query_homogenity_rate 	33.333333333333
scalar Network800.node10 	qrecord_time 	9850
scalar Network800.node10 	discovery_resolution_rate 	33.333333333333
scalar Network800.node310 	rate_of_requesters 	1
scalar Network800.node310 	number_of_resources 	44000
scalar Network800.node310 	time_period 	1
scalar Network800.node310 	number_of_messages 	76
scalar Network800.node310 	discovery_latency 	5082
scalar Network800.node310 	number_of_desired_resources 	20
scalar Network800.node310 	query_homogenity_rate 	33.333333333333
scalar Network800.node310 	qrecord_time 	9874
scalar Network800.node310 	discovery_resolution_rate 	33.333333333333
scalar Network800.node790 	rate_of_requesters 	1
scalar Network800.node790 	number_of_resources 	44000
scalar Network800.node790 	time_period 	1
scalar Network800.node790 	number_of_messages 	9
scalar Network800.node790 	discovery_latency 	5124
scalar Network800.node790 	number_of_desired_resources 	20
scalar Network800.node790 	query_homogenity_rate 	33.333333333333
scalar Network800.node790 	qrecord_time 	9892
scalar Network800.node790 	discovery_resolution_rate 	33.333333333333
scalar Network800.node80 	rate_of_requesters 	1
scalar Network800.node80 	number_of_resources 	44000
scalar Network800.node80 	time_period 	1
scalar Network800.node80 	number_of_messages 	9
scalar Network800.node80 	discovery_latency 	5130
scalar Network800.node80 	number_of_desired_resources 	20
scalar Network800.node80 	query_homogenity_rate 	33.333333333333
scalar Network800.node80 	qrecord_time 	9904
scalar Network800.node80 	discovery_resolution_rate 	33.333333333333
scalar Network800.node590 	rate_of_requesters 	1
scalar Network800.node590 	number_of_resources 	44000
scalar Network800.node590 	time_period 	1
scalar Network800.node590 	number_of_messages 	2
scalar Network800.node590 	discovery_latency 	5148
scalar Network800.node590 	number_of_desired_resources 	20
scalar Network800.node590 	query_homogenity_rate 	33.333333333333
scalar Network800.node590 	qrecord_time 	9910
scalar Network800.node590 	discovery_resolution_rate 	0
scalar Network800.node410 	rate_of_requesters 	1
scalar Network800.node410 	number_of_resources 	44000
scalar Network800.node410 	time_period 	1
scalar Network800.node410 	number_of_messages 	2
scalar Network800.node410 	discovery_latency 	5148
scalar Network800.node410 	number_of_desired_resources 	20
scalar Network800.node410 	query_homogenity_rate 	33.333333333333
scalar Network800.node410 	qrecord_time 	9940
scalar Network800.node410 	discovery_resolution_rate 	0
scalar Network800.node790 	rate_of_requesters 	1
scalar Network800.node790 	number_of_resources 	44000
scalar Network800.node790 	time_period 	3
scalar Network800.node790 	number_of_messages 	88
scalar Network800.node790 	discovery_latency 	5082
scalar Network800.node790 	number_of_desired_resources 	20
scalar Network800.node790 	query_homogenity_rate 	33.333333333333
scalar Network800.node790 	qrecord_time 	9941.360283388
scalar Network800.node790 	discovery_resolution_rate 	33.333333333333
scalar Network800.node780 	rate_of_requesters 	1
scalar Network800.node780 	number_of_resources 	44000
scalar Network800.node780 	time_period 	1
scalar Network800.node780 	number_of_messages 	2
scalar Network800.node780 	discovery_latency 	5220
scalar Network800.node780 	number_of_desired_resources 	20
scalar Network800.node780 	query_homogenity_rate 	33.333333333333
scalar Network800.node780 	qrecord_time 	9976
scalar Network800.node780 	discovery_resolution_rate 	0
scalar Network800.node300 	rate_of_requesters 	1
scalar Network800.node300 	number_of_resources 	44000
scalar Network800.node300 	time_period 	2
scalar Network800.node300 	number_of_messages 	2
scalar Network800.node300 	discovery_latency 	5100
scalar Network800.node300 	number_of_desired_resources 	20
scalar Network800.node300 	query_homogenity_rate 	33.333333333333
scalar Network800.node300 	qrecord_time 	9983.619460723
scalar Network800.node300 	discovery_resolution_rate 	0
scalar Network800.node400 	rate_of_requesters 	1
scalar Network800.node400 	number_of_resources 	44000
scalar Network800.node400 	time_period 	1
scalar Network800.node400 	number_of_messages 	12
scalar Network800.node400 	discovery_latency 	5328
scalar Network800.node400 	number_of_desired_resources 	20
scalar Network800.node400 	query_homogenity_rate 	33.333333333333
scalar Network800.node400 	qrecord_time 	9994
scalar Network800.node400 	discovery_resolution_rate 	33.333333333333
scalar Network800.node290 	rate_of_requesters 	1
scalar Network800.node290 	number_of_resources 	44000
scalar Network800.node290 	time_period 	1
scalar Network800.node290 	number_of_messages 	2
scalar Network800.node290 	discovery_latency 	5220
scalar Network800.node290 	number_of_desired_resources 	20
scalar Network800.node290 	query_homogenity_rate 	33.333333333333
scalar Network800.node290 	qrecord_time 	10000
scalar Network800.node290 	discovery_resolution_rate 	0
scalar Network800.node140 	rate_of_requesters 	1
scalar Network800.node140 	number_of_resources 	44000
scalar Network800.node140 	time_period 	1
scalar Network800.node140 	number_of_messages 	228
scalar Network800.node140 	discovery_latency 	5232
scalar Network800.node140 	number_of_desired_resources 	20
scalar Network800.node140 	query_homogenity_rate 	33.333333333333
scalar Network800.node140 	qrecord_time 	10000
scalar Network800.node140 	discovery_resolution_rate 	16.666666666667
scalar Network800.node170 	rate_of_requesters 	1
scalar Network800.node170 	number_of_resources 	44000
scalar Network800.node170 	time_period 	1
scalar Network800.node170 	number_of_messages 	226
scalar Network800.node170 	discovery_latency 	5304
scalar Network800.node170 	number_of_desired_resources 	20
scalar Network800.node170 	query_homogenity_rate 	33.333333333333
scalar Network800.node170 	qrecord_time 	10000
scalar Network800.node170 	discovery_resolution_rate 	16.666666666667
scalar Network800.node790 	rate_of_requesters 	1
scalar Network800.node790 	number_of_resources 	44000
scalar Network800.node790 	time_period 	2
scalar Network800.node790 	number_of_messages 	2
scalar Network800.node790 	discovery_latency 	5184
scalar Network800.node790 	number_of_desired_resources 	20
scalar Network800.node790 	query_homogenity_rate 	33.333333333333
scalar Network800.node790 	qrecord_time 	10004.917749075
scalar Network800.node790 	discovery_resolution_rate 	0
scalar Network800.node680 	rate_of_requesters 	1
scalar Network800.node680 	number_of_resources 	44000
scalar Network800.node680 	time_period 	1
scalar Network800.node680 	number_of_messages 	256
scalar Network800.node680 	discovery_latency 	5268
scalar Network800.node680 	number_of_desired_resources 	20
scalar Network800.node680 	query_homogenity_rate 	33.333333333333
scalar Network800.node680 	qrecord_time 	10018
scalar Network800.node680 	discovery_resolution_rate 	50
scalar Network800.node420 	rate_of_requesters 	1
scalar Network800.node420 	number_of_resources 	44000
scalar Network800.node420 	time_period 	1
scalar Network800.node420 	number_of_messages 	2
scalar Network800.node420 	discovery_latency 	5292
scalar Network800.node420 	number_of_desired_resources 	20
scalar Network800.node420 	query_homogenity_rate 	33.333333333333
scalar Network800.node420 	qrecord_time 	10042
scalar Network800.node420 	discovery_resolution_rate 	0
scalar Network800.node650 	rate_of_requesters 	1
scalar Network800.node650 	number_of_resources 	44000
scalar Network800.node650 	time_period 	1
scalar Network800.node650 	number_of_messages 	2
scalar Network800.node650 	discovery_latency 	5292
scalar Network800.node650 	number_of_desired_resources 	20
scalar Network800.node650 	query_homogenity_rate 	33.333333333333
scalar Network800.node650 	qrecord_time 	10048
scalar Network800.node650 	discovery_resolution_rate 	0
scalar Network800.node480 	rate_of_requesters 	1
scalar Network800.node480 	number_of_resources 	44000
scalar Network800.node480 	time_period 	1
scalar Network800.node480 	number_of_messages 	2
scalar Network800.node480 	discovery_latency 	5304
scalar Network800.node480 	number_of_desired_resources 	20
scalar Network800.node480 	query_homogenity_rate 	33.333333333333
scalar Network800.node480 	qrecord_time 	10054
scalar Network800.node480 	discovery_resolution_rate 	0
scalar Network800.node90 	rate_of_requesters 	1
scalar Network800.node90 	number_of_resources 	44000
scalar Network800.node90 	time_period 	1
scalar Network800.node90 	number_of_messages 	4
scalar Network800.node90 	discovery_latency 	5316
scalar Network800.node90 	number_of_desired_resources 	20
scalar Network800.node90 	query_homogenity_rate 	33.333333333333
scalar Network800.node90 	qrecord_time 	10066
scalar Network800.node90 	discovery_resolution_rate 	33.333333333333
scalar Network800.node250 	rate_of_requesters 	1
scalar Network800.node250 	number_of_resources 	44000
scalar Network800.node250 	time_period 	1
scalar Network800.node250 	number_of_messages 	11
scalar Network800.node250 	discovery_latency 	5316
scalar Network800.node250 	number_of_desired_resources 	20
scalar Network800.node250 	query_homogenity_rate 	33.333333333333
scalar Network800.node250 	qrecord_time 	10066
scalar Network800.node250 	discovery_resolution_rate 	33.333333333333
scalar Network800.node610 	rate_of_requesters 	1
scalar Network800.node610 	number_of_resources 	44000
scalar Network800.node610 	time_period 	1
scalar Network800.node610 	number_of_messages 	2
scalar Network800.node610 	discovery_latency 	5268
scalar Network800.node610 	number_of_desired_resources 	20
scalar Network800.node610 	query_homogenity_rate 	33.333333333333
scalar Network800.node610 	qrecord_time 	10078
scalar Network800.node610 	discovery_resolution_rate 	0
scalar Network800.node0 	rate_of_requesters 	1
scalar Network800.node0 	number_of_resources 	44000
scalar Network800.node0 	time_period 	1
scalar Network800.node0 	number_of_messages 	5
scalar Network800.node0 	discovery_latency 	5292
scalar Network800.node0 	number_of_desired_resources 	20
scalar Network800.node0 	query_homogenity_rate 	33.333333333333
scalar Network800.node0 	qrecord_time 	10084
scalar Network800.node0 	discovery_resolution_rate 	33.333333333333
scalar Network800.node730 	rate_of_requesters 	1
scalar Network800.node730 	number_of_resources 	44000
scalar Network800.node730 	time_period 	1
scalar Network800.node730 	number_of_messages 	2
scalar Network800.node730 	discovery_latency 	5352
scalar Network800.node730 	number_of_desired_resources 	20
scalar Network800.node730 	query_homogenity_rate 	33.333333333333
scalar Network800.node730 	qrecord_time 	10084
scalar Network800.node730 	discovery_resolution_rate 	0
scalar Network800.node460 	rate_of_requesters 	1
scalar Network800.node460 	number_of_resources 	44000
scalar Network800.node460 	time_period 	1
scalar Network800.node460 	number_of_messages 	2
scalar Network800.node460 	discovery_latency 	5352
scalar Network800.node460 	number_of_desired_resources 	20
scalar Network800.node460 	query_homogenity_rate 	33.333333333333
scalar Network800.node460 	qrecord_time 	10090
scalar Network800.node460 	discovery_resolution_rate 	0
scalar Network800.node260 	rate_of_requesters 	1
scalar Network800.node260 	number_of_resources 	44000
scalar Network800.node260 	time_period 	2
scalar Network800.node260 	number_of_messages 	2
scalar Network800.node260 	discovery_latency 	5220
scalar Network800.node260 	number_of_desired_resources 	20
scalar Network800.node260 	query_homogenity_rate 	33.333333333333
scalar Network800.node260 	qrecord_time 	10104.851384331
scalar Network800.node260 	discovery_resolution_rate 	0
scalar Network800.node430 	rate_of_requesters 	1
scalar Network800.node430 	number_of_resources 	44000
scalar Network800.node430 	time_period 	1
scalar Network800.node430 	number_of_messages 	2
scalar Network800.node430 	discovery_latency 	5352
scalar Network800.node430 	number_of_desired_resources 	20
scalar Network800.node430 	query_homogenity_rate 	33.333333333333
scalar Network800.node430 	qrecord_time 	10108
scalar Network800.node430 	discovery_resolution_rate 	0
scalar Network800.node110 	rate_of_requesters 	1
scalar Network800.node110 	number_of_resources 	44000
scalar Network800.node110 	time_period 	1
scalar Network800.node110 	number_of_messages 	254
scalar Network800.node110 	discovery_latency 	5328
scalar Network800.node110 	number_of_desired_resources 	20
scalar Network800.node110 	query_homogenity_rate 	33.333333333333
scalar Network800.node110 	qrecord_time 	10108
scalar Network800.node110 	discovery_resolution_rate 	16.666666666667
scalar Network800.node510 	rate_of_requesters 	1
scalar Network800.node510 	number_of_resources 	44000
scalar Network800.node510 	time_period 	1
scalar Network800.node510 	number_of_messages 	228
scalar Network800.node510 	discovery_latency 	5376
scalar Network800.node510 	number_of_desired_resources 	20
scalar Network800.node510 	query_homogenity_rate 	33.333333333333
scalar Network800.node510 	qrecord_time 	10126
scalar Network800.node510 	discovery_resolution_rate 	16.666666666667
scalar Network800.node230 	rate_of_requesters 	1
scalar Network800.node230 	number_of_resources 	44000
scalar Network800.node230 	time_period 	1
scalar Network800.node230 	number_of_messages 	19
scalar Network800.node230 	discovery_latency 	5436
scalar Network800.node230 	number_of_desired_resources 	20
scalar Network800.node230 	query_homogenity_rate 	33.333333333333
scalar Network800.node230 	qrecord_time 	10126
scalar Network800.node230 	discovery_resolution_rate 	66.666666666667
scalar Network800.node440 	rate_of_requesters 	1
scalar Network800.node440 	number_of_resources 	44000
scalar Network800.node440 	time_period 	1
scalar Network800.node440 	number_of_messages 	254
scalar Network800.node440 	discovery_latency 	5400
scalar Network800.node440 	number_of_desired_resources 	20
scalar Network800.node440 	query_homogenity_rate 	33.333333333333
scalar Network800.node440 	qrecord_time 	10126
scalar Network800.node440 	discovery_resolution_rate 	16.666666666667
scalar Network800.node180 	rate_of_requesters 	1
scalar Network800.node180 	number_of_resources 	44000
scalar Network800.node180 	time_period 	1
scalar Network800.node180 	number_of_messages 	7
scalar Network800.node180 	discovery_latency 	5376
scalar Network800.node180 	number_of_desired_resources 	20
scalar Network800.node180 	query_homogenity_rate 	33.333333333333
scalar Network800.node180 	qrecord_time 	10132
scalar Network800.node180 	discovery_resolution_rate 	33.333333333333
scalar Network800.node530 	rate_of_requesters 	1
scalar Network800.node530 	number_of_resources 	44000
scalar Network800.node530 	time_period 	1
scalar Network800.node530 	number_of_messages 	2
scalar Network800.node530 	discovery_latency 	5268
scalar Network800.node530 	number_of_desired_resources 	20
scalar Network800.node530 	query_homogenity_rate 	33.333333333333
scalar Network800.node530 	qrecord_time 	10132
scalar Network800.node530 	discovery_resolution_rate 	0
scalar Network800.node240 	rate_of_requesters 	1
scalar Network800.node240 	number_of_resources 	44000
scalar Network800.node240 	time_period 	1
scalar Network800.node240 	number_of_messages 	2
scalar Network800.node240 	discovery_latency 	5340
scalar Network800.node240 	number_of_desired_resources 	20
scalar Network800.node240 	query_homogenity_rate 	33.333333333333
scalar Network800.node240 	qrecord_time 	10138
scalar Network800.node240 	discovery_resolution_rate 	0
scalar Network800.node200 	rate_of_requesters 	1
scalar Network800.node200 	number_of_resources 	44000
scalar Network800.node200 	time_period 	1
scalar Network800.node200 	number_of_messages 	5
scalar Network800.node200 	discovery_latency 	5388
scalar Network800.node200 	number_of_desired_resources 	20
scalar Network800.node200 	query_homogenity_rate 	33.333333333333
scalar Network800.node200 	qrecord_time 	10144
scalar Network800.node200 	discovery_resolution_rate 	33.333333333333
scalar Network800.node60 	rate_of_requesters 	1
scalar Network800.node60 	number_of_resources 	44000
scalar Network800.node60 	time_period 	1
scalar Network800.node60 	number_of_messages 	2
scalar Network800.node60 	discovery_latency 	5412
scalar Network800.node60 	number_of_desired_resources 	20
scalar Network800.node60 	query_homogenity_rate 	33.333333333333
scalar Network800.node60 	qrecord_time 	10144
scalar Network800.node60 	discovery_resolution_rate 	0
scalar Network800.node20 	rate_of_requesters 	1
scalar Network800.node20 	number_of_resources 	44000
scalar Network800.node20 	time_period 	1
scalar Network800.node20 	number_of_messages 	2
scalar Network800.node20 	discovery_latency 	5340
scalar Network800.node20 	number_of_desired_resources 	20
scalar Network800.node20 	query_homogenity_rate 	33.333333333333
scalar Network800.node20 	qrecord_time 	10150
scalar Network800.node20 	discovery_resolution_rate 	0
scalar Network800.node670 	rate_of_requesters 	1
scalar Network800.node670 	number_of_resources 	44000
scalar Network800.node670 	time_period 	1
scalar Network800.node670 	number_of_messages 	2
scalar Network800.node670 	discovery_latency 	5400
scalar Network800.node670 	number_of_desired_resources 	20
scalar Network800.node670 	query_homogenity_rate 	33.333333333333
scalar Network800.node670 	qrecord_time 	10150
scalar Network800.node670 	discovery_resolution_rate 	0
scalar Network800.node170 	rate_of_requesters 	1
scalar Network800.node170 	number_of_resources 	44000
scalar Network800.node170 	time_period 	2
scalar Network800.node170 	number_of_messages 	0
scalar Network800.node170 	discovery_latency 	5244
scalar Network800.node170 	number_of_desired_resources 	20
scalar Network800.node170 	query_homogenity_rate 	33.333333333333
scalar Network800.node170 	qrecord_time 	10150.129877075
scalar Network800.node170 	discovery_resolution_rate 	0
scalar Network800.node570 	rate_of_requesters 	1
scalar Network800.node570 	number_of_resources 	44000
scalar Network800.node570 	time_period 	1
scalar Network800.node570 	number_of_messages 	2
scalar Network800.node570 	discovery_latency 	5364
scalar Network800.node570 	number_of_desired_resources 	20
scalar Network800.node570 	query_homogenity_rate 	33.333333333333
scalar Network800.node570 	qrecord_time 	10156
scalar Network800.node570 	discovery_resolution_rate 	0
scalar Network800.node220 	rate_of_requesters 	1
scalar Network800.node220 	number_of_resources 	44000
scalar Network800.node220 	time_period 	1
scalar Network800.node220 	number_of_messages 	5
scalar Network800.node220 	discovery_latency 	5448
scalar Network800.node220 	number_of_desired_resources 	20
scalar Network800.node220 	query_homogenity_rate 	33.333333333333
scalar Network800.node220 	qrecord_time 	10156
scalar Network800.node220 	discovery_resolution_rate 	33.333333333333
scalar Network800.node770 	rate_of_requesters 	1
scalar Network800.node770 	number_of_resources 	44000
scalar Network800.node770 	time_period 	1
scalar Network800.node770 	number_of_messages 	8
scalar Network800.node770 	discovery_latency 	5328
scalar Network800.node770 	number_of_desired_resources 	20
scalar Network800.node770 	query_homogenity_rate 	33.333333333333
scalar Network800.node770 	qrecord_time 	10162
scalar Network800.node770 	discovery_resolution_rate 	33.333333333333
scalar Network800.node370 	rate_of_requesters 	1
scalar Network800.node370 	number_of_resources 	44000
scalar Network800.node370 	time_period 	2
scalar Network800.node370 	number_of_messages 	2
scalar Network800.node370 	discovery_latency 	5244
scalar Network800.node370 	number_of_desired_resources 	20
scalar Network800.node370 	query_homogenity_rate 	33.333333333333
scalar Network800.node370 	qrecord_time 	10172.06196495
scalar Network800.node370 	discovery_resolution_rate 	0
scalar Network800.node620 	rate_of_requesters 	1
scalar Network800.node620 	number_of_resources 	44000
scalar Network800.node620 	time_period 	1
scalar Network800.node620 	number_of_messages 	30
scalar Network800.node620 	discovery_latency 	5424
scalar Network800.node620 	number_of_desired_resources 	20
scalar Network800.node620 	query_homogenity_rate 	33.333333333333
scalar Network800.node620 	qrecord_time 	10180
scalar Network800.node620 	discovery_resolution_rate 	33.333333333333
scalar Network800.node380 	rate_of_requesters 	1
scalar Network800.node380 	number_of_resources 	44000
scalar Network800.node380 	time_period 	1
scalar Network800.node380 	number_of_messages 	7
scalar Network800.node380 	discovery_latency 	5376
scalar Network800.node380 	number_of_desired_resources 	20
scalar Network800.node380 	query_homogenity_rate 	33.333333333333
scalar Network800.node380 	qrecord_time 	10186
scalar Network800.node380 	discovery_resolution_rate 	33.333333333333
scalar Network800.node160 	rate_of_requesters 	1
scalar Network800.node160 	number_of_resources 	44000
scalar Network800.node160 	time_period 	1
scalar Network800.node160 	number_of_messages 	2
scalar Network800.node160 	discovery_latency 	5484
scalar Network800.node160 	number_of_desired_resources 	20
scalar Network800.node160 	query_homogenity_rate 	33.333333333333
scalar Network800.node160 	qrecord_time 	10198
scalar Network800.node160 	discovery_resolution_rate 	0
scalar Network800.node470 	rate_of_requesters 	1
scalar Network800.node470 	number_of_resources 	44000
scalar Network800.node470 	time_period 	1
scalar Network800.node470 	number_of_messages 	252
scalar Network800.node470 	discovery_latency 	5412
scalar Network800.node470 	number_of_desired_resources 	20
scalar Network800.node470 	query_homogenity_rate 	33.333333333333
scalar Network800.node470 	qrecord_time 	10204
scalar Network800.node470 	discovery_resolution_rate 	16.666666666667
scalar Network800.node710 	rate_of_requesters 	1
scalar Network800.node710 	number_of_resources 	44000
scalar Network800.node710 	time_period 	1
scalar Network800.node710 	number_of_messages 	2
scalar Network800.node710 	discovery_latency 	5388
scalar Network800.node710 	number_of_desired_resources 	20
scalar Network800.node710 	query_homogenity_rate 	33.333333333333
scalar Network800.node710 	qrecord_time 	10222
scalar Network800.node710 	discovery_resolution_rate 	0
scalar Network800.node770 	rate_of_requesters 	1
scalar Network800.node770 	number_of_resources 	44000
scalar Network800.node770 	time_period 	2
scalar Network800.node770 	number_of_messages 	2
scalar Network800.node770 	discovery_latency 	5160
scalar Network800.node770 	number_of_desired_resources 	20
scalar Network800.node770 	query_homogenity_rate 	33.333333333333
scalar Network800.node770 	qrecord_time 	10260.838958439
scalar Network800.node770 	discovery_resolution_rate 	0
scalar Network800.node540 	rate_of_requesters 	1
scalar Network800.node540 	number_of_resources 	44000
scalar Network800.node540 	time_period 	2
scalar Network800.node540 	number_of_messages 	2
scalar Network800.node540 	discovery_latency 	5196
scalar Network800.node540 	number_of_desired_resources 	20
scalar Network800.node540 	query_homogenity_rate 	33.333333333333
scalar Network800.node540 	qrecord_time 	10271.751980006
scalar Network800.node540 	discovery_resolution_rate 	0
scalar Network800.node500 	rate_of_requesters 	1
scalar Network800.node500 	number_of_resources 	44000
scalar Network800.node500 	time_period 	2
scalar Network800.node500 	number_of_messages 	2
scalar Network800.node500 	discovery_latency 	5208
scalar Network800.node500 	number_of_desired_resources 	20
scalar Network800.node500 	query_homogenity_rate 	33.333333333333
scalar Network800.node500 	qrecord_time 	10283.632516751
scalar Network800.node500 	discovery_resolution_rate 	0
scalar Network800.node690 	rate_of_requesters 	1
scalar Network800.node690 	number_of_resources 	44000
scalar Network800.node690 	time_period 	1
scalar Network800.node690 	number_of_messages 	2
scalar Network800.node690 	discovery_latency 	5400
scalar Network800.node690 	number_of_desired_resources 	20
scalar Network800.node690 	query_homogenity_rate 	33.333333333333
scalar Network800.node690 	qrecord_time 	10294
scalar Network800.node690 	discovery_resolution_rate 	0
scalar Network800.node270 	rate_of_requesters 	1
scalar Network800.node270 	number_of_resources 	44000
scalar Network800.node270 	time_period 	2
scalar Network800.node270 	number_of_messages 	2
scalar Network800.node270 	discovery_latency 	5124
scalar Network800.node270 	number_of_desired_resources 	20
scalar Network800.node270 	query_homogenity_rate 	33.333333333333
scalar Network800.node270 	qrecord_time 	10312.84377407
scalar Network800.node270 	discovery_resolution_rate 	0
scalar Network800.node210 	rate_of_requesters 	1
scalar Network800.node210 	number_of_resources 	44000
scalar Network800.node210 	time_period 	2
scalar Network800.node210 	number_of_messages 	2
scalar Network800.node210 	discovery_latency 	5328
scalar Network800.node210 	number_of_desired_resources 	20
scalar Network800.node210 	query_homogenity_rate 	33.333333333333
scalar Network800.node210 	qrecord_time 	10326.551058574
scalar Network800.node210 	discovery_resolution_rate 	0
scalar Network800.node300 	rate_of_requesters 	1
scalar Network800.node300 	number_of_resources 	44000
scalar Network800.node300 	time_period 	3
scalar Network800.node300 	number_of_messages 	2
scalar Network800.node300 	discovery_latency 	5172
scalar Network800.node300 	number_of_desired_resources 	20
scalar Network800.node300 	query_homogenity_rate 	33.333333333333
scalar Network800.node300 	qrecord_time 	10348.44350644
scalar Network800.node300 	discovery_resolution_rate 	0
scalar Network800.node230 	rate_of_requesters 	1
scalar Network800.node230 	number_of_resources 	44000
scalar Network800.node230 	time_period 	2
scalar Network800.node230 	number_of_messages 	2
scalar Network800.node230 	discovery_latency 	5220
scalar Network800.node230 	number_of_desired_resources 	20
scalar Network800.node230 	query_homogenity_rate 	33.333333333333
scalar Network800.node230 	qrecord_time 	10436.020771566
scalar Network800.node230 	discovery_resolution_rate 	0
scalar Network800.node750 	rate_of_requesters 	1
scalar Network800.node750 	number_of_resources 	44000
scalar Network800.node750 	time_period 	2
scalar Network800.node750 	number_of_messages 	2
scalar Network800.node750 	discovery_latency 	5256
scalar Network800.node750 	number_of_desired_resources 	20
scalar Network800.node750 	query_homogenity_rate 	33.333333333333
scalar Network800.node750 	qrecord_time 	10457.429080383
scalar Network800.node750 	discovery_resolution_rate 	0
scalar Network800.node730 	rate_of_requesters 	1
scalar Network800.node730 	number_of_resources 	44000
scalar Network800.node730 	time_period 	2
scalar Network800.node730 	number_of_messages 	2
scalar Network800.node730 	discovery_latency 	5196
scalar Network800.node730 	number_of_desired_resources 	20
scalar Network800.node730 	query_homogenity_rate 	33.333333333333
scalar Network800.node730 	qrecord_time 	10472.014148012
scalar Network800.node730 	discovery_resolution_rate 	0
scalar Network800.node330 	rate_of_requesters 	1
scalar Network800.node330 	number_of_resources 	44000
scalar Network800.node330 	time_period 	2
scalar Network800.node330 	number_of_messages 	2
scalar Network800.node330 	discovery_latency 	5364
scalar Network800.node330 	number_of_desired_resources 	20
scalar Network800.node330 	query_homogenity_rate 	33.333333333333
scalar Network800.node330 	qrecord_time 	10547.867514251
scalar Network800.node330 	discovery_resolution_rate 	0
scalar Network800.node500 	rate_of_requesters 	1
scalar Network800.node500 	number_of_resources 	44000
scalar Network800.node500 	time_period 	3
scalar Network800.node500 	number_of_messages 	2
scalar Network800.node500 	discovery_latency 	5148
scalar Network800.node500 	number_of_desired_resources 	20
scalar Network800.node500 	query_homogenity_rate 	33.333333333333
scalar Network800.node500 	qrecord_time 	10687.93549458
scalar Network800.node500 	discovery_resolution_rate 	0
scalar Network800.node320 	rate_of_requesters 	1
scalar Network800.node320 	number_of_resources 	44000
scalar Network800.node320 	time_period 	2
scalar Network800.node320 	number_of_messages 	2
scalar Network800.node320 	discovery_latency 	5340
scalar Network800.node320 	number_of_desired_resources 	20
scalar Network800.node320 	query_homogenity_rate 	33.333333333333
scalar Network800.node320 	qrecord_time 	10750.336352543
scalar Network800.node320 	discovery_resolution_rate 	0
scalar Network800.node60 	rate_of_requesters 	1
scalar Network800.node60 	number_of_resources 	44000
scalar Network800.node60 	time_period 	2
scalar Network800.node60 	number_of_messages 	2
scalar Network800.node60 	discovery_latency 	5220
scalar Network800.node60 	number_of_desired_resources 	20
scalar Network800.node60 	query_homogenity_rate 	33.333333333333
scalar Network800.node60 	qrecord_time 	10774.048924925
scalar Network800.node60 	discovery_resolution_rate 	0
scalar Network800.node190 	rate_of_requesters 	1
scalar Network800.node190 	number_of_resources 	44000
scalar Network800.node190 	time_period 	2
scalar Network800.node190 	number_of_messages 	2
scalar Network800.node190 	discovery_latency 	5160
scalar Network800.node190 	number_of_desired_resources 	20
scalar Network800.node190 	query_homogenity_rate 	33.333333333333
scalar Network800.node190 	qrecord_time 	10778.123467028
scalar Network800.node190 	discovery_resolution_rate 	0
scalar Network800.node660 	rate_of_requesters 	1
scalar Network800.node660 	number_of_resources 	44000
scalar Network800.node660 	time_period 	2
scalar Network800.node660 	number_of_messages 	2
scalar Network800.node660 	discovery_latency 	5388
scalar Network800.node660 	number_of_desired_resources 	20
scalar Network800.node660 	query_homogenity_rate 	33.333333333333
scalar Network800.node660 	qrecord_time 	10813.911852148
scalar Network800.node660 	discovery_resolution_rate 	0
scalar Network800.node310 	rate_of_requesters 	1
scalar Network800.node310 	number_of_resources 	44000
scalar Network800.node310 	time_period 	2
scalar Network800.node310 	number_of_messages 	2
scalar Network800.node310 	discovery_latency 	5244
scalar Network800.node310 	number_of_desired_resources 	20
scalar Network800.node310 	query_homogenity_rate 	33.333333333333
scalar Network800.node310 	qrecord_time 	10885.092356635
scalar Network800.node310 	discovery_resolution_rate 	0
scalar Network800.node620 	rate_of_requesters 	1
scalar Network800.node620 	number_of_resources 	44000
scalar Network800.node620 	time_period 	2
scalar Network800.node620 	number_of_messages 	201
scalar Network800.node620 	discovery_latency 	5376
scalar Network800.node620 	number_of_desired_resources 	20
scalar Network800.node620 	query_homogenity_rate 	33.333333333333
scalar Network800.node620 	qrecord_time 	10904.298445006
scalar Network800.node620 	discovery_resolution_rate 	33.333333333333
scalar Network800.node420 	rate_of_requesters 	1
scalar Network800.node420 	number_of_resources 	44000
scalar Network800.node420 	time_period 	2
scalar Network800.node420 	number_of_messages 	2
scalar Network800.node420 	discovery_latency 	5304
scalar Network800.node420 	number_of_desired_resources 	20
scalar Network800.node420 	query_homogenity_rate 	33.333333333333
scalar Network800.node420 	qrecord_time 	10952.011716798
scalar Network800.node420 	discovery_resolution_rate 	0
scalar Network800.node40 	rate_of_requesters 	1
scalar Network800.node40 	number_of_resources 	44000
scalar Network800.node40 	time_period 	2
scalar Network800.node40 	number_of_messages 	2
scalar Network800.node40 	discovery_latency 	5184
scalar Network800.node40 	number_of_desired_resources 	20
scalar Network800.node40 	query_homogenity_rate 	33.333333333333
scalar Network800.node40 	qrecord_time 	10985.547068232
scalar Network800.node40 	discovery_resolution_rate 	0
scalar Network800.node220 	rate_of_requesters 	1
scalar Network800.node220 	number_of_resources 	44000
scalar Network800.node220 	time_period 	2
scalar Network800.node220 	number_of_messages 	2
scalar Network800.node220 	discovery_latency 	5292
scalar Network800.node220 	number_of_desired_resources 	20
scalar Network800.node220 	query_homogenity_rate 	33.333333333333
scalar Network800.node220 	qrecord_time 	11010.230509961
scalar Network800.node220 	discovery_resolution_rate 	0
scalar Network800.node630 	rate_of_requesters 	1
scalar Network800.node630 	number_of_resources 	44000
scalar Network800.node630 	time_period 	2
scalar Network800.node630 	number_of_messages 	2
scalar Network800.node630 	discovery_latency 	5244
scalar Network800.node630 	number_of_desired_resources 	20
scalar Network800.node630 	query_homogenity_rate 	33.333333333333
scalar Network800.node630 	qrecord_time 	11060.916741323
scalar Network800.node630 	discovery_resolution_rate 	0
scalar Network800.node160 	rate_of_requesters 	1
scalar Network800.node160 	number_of_resources 	44000
scalar Network800.node160 	time_period 	2
scalar Network800.node160 	number_of_messages 	2
scalar Network800.node160 	discovery_latency 	5340
scalar Network800.node160 	number_of_desired_resources 	20
scalar Network800.node160 	query_homogenity_rate 	33.333333333333
scalar Network800.node160 	qrecord_time 	11079.435467197
scalar Network800.node160 	discovery_resolution_rate 	0
scalar Network800.node540 	rate_of_requesters 	1
scalar Network800.node540 	number_of_resources 	44000
scalar Network800.node540 	time_period 	3
scalar Network800.node540 	number_of_messages 	2
scalar Network800.node540 	discovery_latency 	5424
scalar Network800.node540 	number_of_desired_resources 	20
scalar Network800.node540 	query_homogenity_rate 	33.333333333333
scalar Network800.node540 	qrecord_time 	11085.552335773
scalar Network800.node540 	discovery_resolution_rate 	0
scalar Network800.node420 	rate_of_requesters 	1
scalar Network800.node420 	number_of_resources 	44000
scalar Network800.node420 	time_period 	3
scalar Network800.node420 	number_of_messages 	2
scalar Network800.node420 	discovery_latency 	5196
scalar Network800.node420 	number_of_desired_resources 	20
scalar Network800.node420 	query_homogenity_rate 	33.333333333333
scalar Network800.node420 	qrecord_time 	11085.868708594
scalar Network800.node420 	discovery_resolution_rate 	0
scalar Network800.node440 	rate_of_requesters 	1
scalar Network800.node440 	number_of_resources 	44000
scalar Network800.node440 	time_period 	3
scalar Network800.node440 	number_of_messages 	2
scalar Network800.node440 	discovery_latency 	5220
scalar Network800.node440 	number_of_desired_resources 	20
scalar Network800.node440 	query_homogenity_rate 	33.333333333333
scalar Network800.node440 	qrecord_time 	11169.526782828
scalar Network800.node440 	discovery_resolution_rate 	0
scalar Network800.node440 	rate_of_requesters 	1
scalar Network800.node440 	number_of_resources 	44000
scalar Network800.node440 	time_period 	2
scalar Network800.node440 	number_of_messages 	2
scalar Network800.node440 	discovery_latency 	5232
scalar Network800.node440 	number_of_desired_resources 	20
scalar Network800.node440 	query_homogenity_rate 	33.333333333333
scalar Network800.node440 	qrecord_time 	11176.105769693
scalar Network800.node440 	discovery_resolution_rate 	0
scalar Network800.node310 	rate_of_requesters 	1
scalar Network800.node310 	number_of_resources 	44000
scalar Network800.node310 	time_period 	3
scalar Network800.node310 	number_of_messages 	2
scalar Network800.node310 	discovery_latency 	5388
scalar Network800.node310 	number_of_desired_resources 	20
scalar Network800.node310 	query_homogenity_rate 	33.333333333333
scalar Network800.node310 	qrecord_time 	11197.404351637
scalar Network800.node310 	discovery_resolution_rate 	0
scalar Network800.node70 	rate_of_requesters 	1
scalar Network800.node70 	number_of_resources 	44000
scalar Network800.node70 	time_period 	2
scalar Network800.node70 	number_of_messages 	2
scalar Network800.node70 	discovery_latency 	5436
scalar Network800.node70 	number_of_desired_resources 	20
scalar Network800.node70 	query_homogenity_rate 	33.333333333333
scalar Network800.node70 	qrecord_time 	11328.01077814
scalar Network800.node70 	discovery_resolution_rate 	0
scalar Network800.node500 	rate_of_requesters 	1
scalar Network800.node500 	number_of_resources 	44000
scalar Network800.node500 	time_period 	4
scalar Network800.node500 	number_of_messages 	2
scalar Network800.node500 	discovery_latency 	5196
scalar Network800.node500 	number_of_desired_resources 	20
scalar Network800.node500 	query_homogenity_rate 	33.333333333333
scalar Network800.node500 	qrecord_time 	11393.708632485
scalar Network800.node500 	discovery_resolution_rate 	0
scalar Network800.node240 	rate_of_requesters 	1
scalar Network800.node240 	number_of_resources 	44000
scalar Network800.node240 	time_period 	2
scalar Network800.node240 	number_of_messages 	2
scalar Network800.node240 	discovery_latency 	5160
scalar Network800.node240 	number_of_desired_resources 	20
scalar Network800.node240 	query_homogenity_rate 	33.333333333333
scalar Network800.node240 	qrecord_time 	11400.356349702
scalar Network800.node240 	discovery_resolution_rate 	0
scalar Network800.node350 	rate_of_requesters 	1
scalar Network800.node350 	number_of_resources 	44000
scalar Network800.node350 	time_period 	2
scalar Network800.node350 	number_of_messages 	2
scalar Network800.node350 	discovery_latency 	5256
scalar Network800.node350 	number_of_desired_resources 	20
scalar Network800.node350 	query_homogenity_rate 	33.333333333333
scalar Network800.node350 	qrecord_time 	11445.660279712
scalar Network800.node350 	discovery_resolution_rate 	0
scalar Network800.node390 	rate_of_requesters 	1
scalar Network800.node390 	number_of_resources 	44000
scalar Network800.node390 	time_period 	2
scalar Network800.node390 	number_of_messages 	2
scalar Network800.node390 	discovery_latency 	5172
scalar Network800.node390 	number_of_desired_resources 	20
scalar Network800.node390 	query_homogenity_rate 	33.333333333333
scalar Network800.node390 	qrecord_time 	11481.970769013
scalar Network800.node390 	discovery_resolution_rate 	0
scalar Network800.node90 	rate_of_requesters 	1
scalar Network800.node90 	number_of_resources 	44000
scalar Network800.node90 	time_period 	2
scalar Network800.node90 	number_of_messages 	2
scalar Network800.node90 	discovery_latency 	5412
scalar Network800.node90 	number_of_desired_resources 	20
scalar Network800.node90 	query_homogenity_rate 	33.333333333333
scalar Network800.node90 	qrecord_time 	11536.434918309
scalar Network800.node90 	discovery_resolution_rate 	0
scalar Network800.node60 	rate_of_requesters 	1
scalar Network800.node60 	number_of_resources 	44000
scalar Network800.node60 	time_period 	3
scalar Network800.node60 	number_of_messages 	2
scalar Network800.node60 	discovery_latency 	5376
scalar Network800.node60 	number_of_desired_resources 	20
scalar Network800.node60 	query_homogenity_rate 	33.333333333333
scalar Network800.node60 	qrecord_time 	11558.971631214
scalar Network800.node60 	discovery_resolution_rate 	0
scalar Network800.node320 	rate_of_requesters 	1
scalar Network800.node320 	number_of_resources 	44000
scalar Network800.node320 	time_period 	3
scalar Network800.node320 	number_of_messages 	2
scalar Network800.node320 	discovery_latency 	5064
scalar Network800.node320 	number_of_desired_resources 	20
scalar Network800.node320 	query_homogenity_rate 	33.333333333333
scalar Network800.node320 	qrecord_time 	11666.13694346
scalar Network800.node320 	discovery_resolution_rate 	0
scalar Network800.node390 	rate_of_requesters 	1
scalar Network800.node390 	number_of_resources 	44000
scalar Network800.node390 	time_period 	3
scalar Network800.node390 	number_of_messages 	2
scalar Network800.node390 	discovery_latency 	5136
scalar Network800.node390 	number_of_desired_resources 	20
scalar Network800.node390 	query_homogenity_rate 	33.333333333333
scalar Network800.node390 	qrecord_time 	11707.520596523
scalar Network800.node390 	discovery_resolution_rate 	0
scalar Network800.node490 	rate_of_requesters 	1
scalar Network800.node490 	number_of_resources 	44000
scalar Network800.node490 	time_period 	3
scalar Network800.node490 	number_of_messages 	2
scalar Network800.node490 	discovery_latency 	5076
scalar Network800.node490 	number_of_desired_resources 	20
scalar Network800.node490 	query_homogenity_rate 	33.333333333333
scalar Network800.node490 	qrecord_time 	11805.762978089
scalar Network800.node490 	discovery_resolution_rate 	0
scalar Network800.node490 	rate_of_requesters 	1
scalar Network800.node490 	number_of_resources 	44000
scalar Network800.node490 	time_period 	4
scalar Network800.node490 	number_of_messages 	2
scalar Network800.node490 	discovery_latency 	5076
scalar Network800.node490 	number_of_desired_resources 	20
scalar Network800.node490 	query_homogenity_rate 	33.333333333333
scalar Network800.node490 	qrecord_time 	11897.513566622
scalar Network800.node490 	discovery_resolution_rate 	0
scalar Network800.node50 	rate_of_requesters 	1
scalar Network800.node50 	number_of_resources 	44000
scalar Network800.node50 	time_period 	2
scalar Network800.node50 	number_of_messages 	2
scalar Network800.node50 	discovery_latency 	5196
scalar Network800.node50 	number_of_desired_resources 	20
scalar Network800.node50 	query_homogenity_rate 	33.333333333333
scalar Network800.node50 	qrecord_time 	11914.643572952
scalar Network800.node50 	discovery_resolution_rate 	0
scalar Network800.node510 	rate_of_requesters 	1
scalar Network800.node510 	number_of_resources 	44000
scalar Network800.node510 	time_period 	2
scalar Network800.node510 	number_of_messages 	2
scalar Network800.node510 	discovery_latency 	5328
scalar Network800.node510 	number_of_desired_resources 	20
scalar Network800.node510 	query_homogenity_rate 	33.333333333333
scalar Network800.node510 	qrecord_time 	11917.420552575
scalar Network800.node510 	discovery_resolution_rate 	0
scalar Network800.node630 	rate_of_requesters 	1
scalar Network800.node630 	number_of_resources 	44000
scalar Network800.node630 	time_period 	3
scalar Network800.node630 	number_of_messages 	2
scalar Network800.node630 	discovery_latency 	5280
scalar Network800.node630 	number_of_desired_resources 	20
scalar Network800.node630 	query_homogenity_rate 	33.333333333333
scalar Network800.node630 	qrecord_time 	11983.248105649
scalar Network800.node630 	discovery_resolution_rate 	0
scalar Network800.node70 	rate_of_requesters 	1
scalar Network800.node70 	number_of_resources 	44000
scalar Network800.node70 	time_period 	3
scalar Network800.node70 	number_of_messages 	2
scalar Network800.node70 	discovery_latency 	5352
scalar Network800.node70 	number_of_desired_resources 	20
scalar Network800.node70 	query_homogenity_rate 	33.333333333333
scalar Network800.node70 	qrecord_time 	12008.671326347
scalar Network800.node70 	discovery_resolution_rate 	0
scalar Network800.node170 	rate_of_requesters 	1
scalar Network800.node170 	number_of_resources 	44000
scalar Network800.node170 	time_period 	3
scalar Network800.node170 	number_of_messages 	0
scalar Network800.node170 	discovery_latency 	5076
scalar Network800.node170 	number_of_desired_resources 	20
scalar Network800.node170 	query_homogenity_rate 	33.333333333333
scalar Network800.node170 	qrecord_time 	12051.884331403
scalar Network800.node170 	discovery_resolution_rate 	0
scalar Network800.node320 	rate_of_requesters 	1
scalar Network800.node320 	number_of_resources 	44000
scalar Network800.node320 	time_period 	4
scalar Network800.node320 	number_of_messages 	2
scalar Network800.node320 	discovery_latency 	5148
scalar Network800.node320 	number_of_desired_resources 	20
scalar Network800.node320 	query_homogenity_rate 	33.333333333333
scalar Network800.node320 	qrecord_time 	12056.697901649
scalar Network800.node320 	discovery_resolution_rate 	0
scalar Network800.node310 	rate_of_requesters 	1
scalar Network800.node310 	number_of_resources 	44000
scalar Network800.node310 	time_period 	4
scalar Network800.node310 	number_of_messages 	2
scalar Network800.node310 	discovery_latency 	5328
scalar Network800.node310 	number_of_desired_resources 	20
scalar Network800.node310 	query_homogenity_rate 	33.333333333333
scalar Network800.node310 	qrecord_time 	12070.177902743
scalar Network800.node310 	discovery_resolution_rate 	0
scalar Network800.node230 	rate_of_requesters 	1
scalar Network800.node230 	number_of_resources 	44000
scalar Network800.node230 	time_period 	4
scalar Network800.node230 	number_of_messages 	99
scalar Network800.node230 	discovery_latency 	792
scalar Network800.node230 	number_of_desired_resources 	20
scalar Network800.node230 	query_homogenity_rate 	33.333333333333
scalar Network800.node230 	qrecord_time 	12103.499957961
scalar Network800.node230 	discovery_resolution_rate 	100
scalar Network800.node300 	rate_of_requesters 	1
scalar Network800.node300 	number_of_resources 	44000
scalar Network800.node300 	time_period 	4
scalar Network800.node300 	number_of_messages 	2
scalar Network800.node300 	discovery_latency 	5304
scalar Network800.node300 	number_of_desired_resources 	20
scalar Network800.node300 	query_homogenity_rate 	33.333333333333
scalar Network800.node300 	qrecord_time 	12108.625074863
scalar Network800.node300 	discovery_resolution_rate 	0
scalar Network800.node490 	rate_of_requesters 	1
scalar Network800.node490 	number_of_resources 	44000
scalar Network800.node490 	time_period 	2
scalar Network800.node490 	number_of_messages 	2
scalar Network800.node490 	discovery_latency 	5508
scalar Network800.node490 	number_of_desired_resources 	20
scalar Network800.node490 	query_homogenity_rate 	33.333333333333
scalar Network800.node490 	qrecord_time 	12124.8028454
scalar Network800.node490 	discovery_resolution_rate 	0
scalar Network800.node350 	rate_of_requesters 	1
scalar Network800.node350 	number_of_resources 	44000
scalar Network800.node350 	time_period 	3
scalar Network800.node350 	number_of_messages 	2
scalar Network800.node350 	discovery_latency 	5352
scalar Network800.node350 	number_of_desired_resources 	20
scalar Network800.node350 	query_homogenity_rate 	33.333333333333
scalar Network800.node350 	qrecord_time 	12173.725019454
scalar Network800.node350 	discovery_resolution_rate 	0
scalar Network800.node590 	rate_of_requesters 	1
scalar Network800.node590 	number_of_resources 	44000
scalar Network800.node590 	time_period 	2
scalar Network800.node590 	number_of_messages 	2
scalar Network800.node590 	discovery_latency 	5244
scalar Network800.node590 	number_of_desired_resources 	20
scalar Network800.node590 	query_homogenity_rate 	33.333333333333
scalar Network800.node590 	qrecord_time 	12187.96813147
scalar Network800.node590 	discovery_resolution_rate 	0
scalar Network800.node730 	rate_of_requesters 	1
scalar Network800.node730 	number_of_resources 	44000
scalar Network800.node730 	time_period 	3
scalar Network800.node730 	number_of_messages 	2
scalar Network800.node730 	discovery_latency 	5220
scalar Network800.node730 	number_of_desired_resources 	20
scalar Network800.node730 	query_homogenity_rate 	33.333333333333
scalar Network800.node730 	qrecord_time 	12240.039450277
scalar Network800.node730 	discovery_resolution_rate 	0
scalar Network800.node300 	rate_of_requesters 	1
scalar Network800.node300 	number_of_resources 	44000
scalar Network800.node300 	time_period 	5
scalar Network800.node300 	number_of_messages 	2
scalar Network800.node300 	discovery_latency 	5292
scalar Network800.node300 	number_of_desired_resources 	20
scalar Network800.node300 	query_homogenity_rate 	33.333333333333
scalar Network800.node300 	qrecord_time 	12308.602651613
scalar Network800.node300 	discovery_resolution_rate 	0
scalar Network800.node510 	rate_of_requesters 	1
scalar Network800.node510 	number_of_resources 	44000
scalar Network800.node510 	time_period 	3
scalar Network800.node510 	number_of_messages 	2
scalar Network800.node510 	discovery_latency 	5136
scalar Network800.node510 	number_of_desired_resources 	20
scalar Network800.node510 	query_homogenity_rate 	33.333333333333
scalar Network800.node510 	qrecord_time 	12328.563459078
scalar Network800.node510 	discovery_resolution_rate 	0
scalar Network800.node390 	rate_of_requesters 	1
scalar Network800.node390 	number_of_resources 	44000
scalar Network800.node390 	time_period 	4
scalar Network800.node390 	number_of_messages 	2
scalar Network800.node390 	discovery_latency 	5196
scalar Network800.node390 	number_of_desired_resources 	20
scalar Network800.node390 	query_homogenity_rate 	33.333333333333
scalar Network800.node390 	qrecord_time 	12343.377135806
scalar Network800.node390 	discovery_resolution_rate 	0
scalar Network800.node0 	rate_of_requesters 	1
scalar Network800.node0 	number_of_resources 	44000
scalar Network800.node0 	time_period 	2
scalar Network800.node0 	number_of_messages 	2
scalar Network800.node0 	discovery_latency 	5220
scalar Network800.node0 	number_of_desired_resources 	20
scalar Network800.node0 	query_homogenity_rate 	33.333333333333
scalar Network800.node0 	qrecord_time 	12351.476577731
scalar Network800.node0 	discovery_resolution_rate 	0
scalar Network800.node230 	rate_of_requesters 	1
scalar Network800.node230 	number_of_resources 	44000
scalar Network800.node230 	time_period 	3
scalar Network800.node230 	number_of_messages 	2
scalar Network800.node230 	discovery_latency 	5352
scalar Network800.node230 	number_of_desired_resources 	20
scalar Network800.node230 	query_homogenity_rate 	33.333333333333
scalar Network800.node230 	qrecord_time 	12369.64343746
scalar Network800.node230 	discovery_resolution_rate 	0
scalar Network800.node60 	rate_of_requesters 	1
scalar Network800.node60 	number_of_resources 	44000
scalar Network800.node60 	time_period 	4
scalar Network800.node60 	number_of_messages 	2
scalar Network800.node60 	discovery_latency 	5232
scalar Network800.node60 	number_of_desired_resources 	20
scalar Network800.node60 	query_homogenity_rate 	33.333333333333
scalar Network800.node60 	qrecord_time 	12431.115492016
scalar Network800.node60 	discovery_resolution_rate 	0
scalar Network800.node720 	rate_of_requesters 	1
scalar Network800.node720 	number_of_resources 	44000
scalar Network800.node720 	time_period 	2
scalar Network800.node720 	number_of_messages 	76
scalar Network800.node720 	discovery_latency 	5046
scalar Network800.node720 	number_of_desired_resources 	20
scalar Network800.node720 	query_homogenity_rate 	33.333333333333
scalar Network800.node720 	qrecord_time 	12592.22214455
scalar Network800.node720 	discovery_resolution_rate 	33.333333333333
scalar Network800.node540 	rate_of_requesters 	1
scalar Network800.node540 	number_of_resources 	44000
scalar Network800.node540 	time_period 	4
scalar Network800.node540 	number_of_messages 	2
scalar Network800.node540 	discovery_latency 	5328
scalar Network800.node540 	number_of_desired_resources 	20
scalar Network800.node540 	query_homogenity_rate 	33.333333333333
scalar Network800.node540 	qrecord_time 	12614.113708829
scalar Network800.node540 	discovery_resolution_rate 	0
scalar Network800.node220 	rate_of_requesters 	1
scalar Network800.node220 	number_of_resources 	44000
scalar Network800.node220 	time_period 	3
scalar Network800.node220 	number_of_messages 	2
scalar Network800.node220 	discovery_latency 	5472
scalar Network800.node220 	number_of_desired_resources 	20
scalar Network800.node220 	query_homogenity_rate 	33.333333333333
scalar Network800.node220 	qrecord_time 	12629.471197831
scalar Network800.node220 	discovery_resolution_rate 	0
scalar Network800.node170 	rate_of_requesters 	1
scalar Network800.node170 	number_of_resources 	44000
scalar Network800.node170 	time_period 	4
scalar Network800.node170 	number_of_messages 	0
scalar Network800.node170 	discovery_latency 	5244
scalar Network800.node170 	number_of_desired_resources 	20
scalar Network800.node170 	query_homogenity_rate 	33.333333333333
scalar Network800.node170 	qrecord_time 	12687.559379311
scalar Network800.node170 	discovery_resolution_rate 	0
scalar Network800.node250 	rate_of_requesters 	1
scalar Network800.node250 	number_of_resources 	44000
scalar Network800.node250 	time_period 	2
scalar Network800.node250 	number_of_messages 	2
scalar Network800.node250 	discovery_latency 	5352
scalar Network800.node250 	number_of_desired_resources 	20
scalar Network800.node250 	query_homogenity_rate 	33.333333333333
scalar Network800.node250 	qrecord_time 	12707.576906282
scalar Network800.node250 	discovery_resolution_rate 	0
scalar Network800.node590 	rate_of_requesters 	1
scalar Network800.node590 	number_of_resources 	44000
scalar Network800.node590 	time_period 	3
scalar Network800.node590 	number_of_messages 	2
scalar Network800.node590 	discovery_latency 	5268
scalar Network800.node590 	number_of_desired_resources 	20
scalar Network800.node590 	query_homogenity_rate 	33.333333333333
scalar Network800.node590 	qrecord_time 	12751.846481803
scalar Network800.node590 	discovery_resolution_rate 	0
scalar Network800.node240 	rate_of_requesters 	1
scalar Network800.node240 	number_of_resources 	44000
scalar Network800.node240 	time_period 	3
scalar Network800.node240 	number_of_messages 	2
scalar Network800.node240 	discovery_latency 	5304
scalar Network800.node240 	number_of_desired_resources 	20
scalar Network800.node240 	query_homogenity_rate 	33.333333333333
scalar Network800.node240 	qrecord_time 	12763.950613041
scalar Network800.node240 	discovery_resolution_rate 	0
scalar Network800.node530 	rate_of_requesters 	1
scalar Network800.node530 	number_of_resources 	44000
scalar Network800.node530 	time_period 	2
scalar Network800.node530 	number_of_messages 	2
scalar Network800.node530 	discovery_latency 	5208
scalar Network800.node530 	number_of_desired_resources 	20
scalar Network800.node530 	query_homogenity_rate 	33.333333333333
scalar Network800.node530 	qrecord_time 	12767.512502489
scalar Network800.node530 	discovery_resolution_rate 	0
scalar Network800.node120 	rate_of_requesters 	1
scalar Network800.node120 	number_of_resources 	44000
scalar Network800.node120 	time_period 	2
scalar Network800.node120 	number_of_messages 	0
scalar Network800.node120 	discovery_latency 	5232
scalar Network800.node120 	number_of_desired_resources 	20
scalar Network800.node120 	query_homogenity_rate 	33.333333333333
scalar Network800.node120 	qrecord_time 	12811.026363681
scalar Network800.node120 	discovery_resolution_rate 	0
scalar Network800.node490 	rate_of_requesters 	1
scalar Network800.node490 	number_of_resources 	44000
scalar Network800.node490 	time_period 	5
scalar Network800.node490 	number_of_messages 	2
scalar Network800.node490 	discovery_latency 	5112
scalar Network800.node490 	number_of_desired_resources 	20
scalar Network800.node490 	query_homogenity_rate 	33.333333333333
scalar Network800.node490 	qrecord_time 	12842.236826498
scalar Network800.node490 	discovery_resolution_rate 	0
scalar Network800.node610 	rate_of_requesters 	1
scalar Network800.node610 	number_of_resources 	44000
scalar Network800.node610 	time_period 	2
scalar Network800.node610 	number_of_messages 	2
scalar Network800.node610 	discovery_latency 	5328
scalar Network800.node610 	number_of_desired_resources 	20
scalar Network800.node610 	query_homogenity_rate 	33.333333333333
scalar Network800.node610 	qrecord_time 	12955.064469317
scalar Network800.node610 	discovery_resolution_rate 	0
scalar Network800.node300 	rate_of_requesters 	1
scalar Network800.node300 	number_of_resources 	44000
scalar Network800.node300 	time_period 	6
scalar Network800.node300 	number_of_messages 	2
scalar Network800.node300 	discovery_latency 	5268
scalar Network800.node300 	number_of_desired_resources 	20
scalar Network800.node300 	query_homogenity_rate 	33.333333333333
scalar Network800.node300 	qrecord_time 	12959.458721845
scalar Network800.node300 	discovery_resolution_rate 	0
scalar Network800.node540 	rate_of_requesters 	1
scalar Network800.node540 	number_of_resources 	44000
scalar Network800.node540 	time_period 	5
scalar Network800.node540 	number_of_messages 	2
scalar Network800.node540 	discovery_latency 	5268
scalar Network800.node540 	number_of_desired_resources 	20
scalar Network800.node540 	query_homogenity_rate 	33.333333333333
scalar Network800.node540 	qrecord_time 	13020.935429921
scalar Network800.node540 	discovery_resolution_rate 	0
scalar Network800.node430 	rate_of_requesters 	1
scalar Network800.node430 	number_of_resources 	44000
scalar Network800.node430 	time_period 	2
scalar Network800.node430 	number_of_messages 	2
scalar Network800.node430 	discovery_latency 	5232
scalar Network800.node430 	number_of_desired_resources 	20
scalar Network800.node430 	query_homogenity_rate 	33.333333333333
scalar Network800.node430 	qrecord_time 	13094.837270114
scalar Network800.node430 	discovery_resolution_rate 	0
scalar Network800.node730 	rate_of_requesters 	1
scalar Network800.node730 	number_of_resources 	44000
scalar Network800.node730 	time_period 	4
scalar Network800.node730 	number_of_messages 	2
scalar Network800.node730 	discovery_latency 	5448
scalar Network800.node730 	number_of_desired_resources 	20
scalar Network800.node730 	query_homogenity_rate 	33.333333333333
scalar Network800.node730 	qrecord_time 	13191.505084032
scalar Network800.node730 	discovery_resolution_rate 	0
scalar Network800.node600 	rate_of_requesters 	1
scalar Network800.node600 	number_of_resources 	44000
scalar Network800.node600 	time_period 	2
scalar Network800.node600 	number_of_messages 	0
scalar Network800.node600 	discovery_latency 	5160
scalar Network800.node600 	number_of_desired_resources 	20
scalar Network800.node600 	query_homogenity_rate 	33.333333333333
scalar Network800.node600 	qrecord_time 	13229.364029787
scalar Network800.node600 	discovery_resolution_rate 	0
scalar Network800.node110 	rate_of_requesters 	1
scalar Network800.node110 	number_of_resources 	44000
scalar Network800.node110 	time_period 	2
scalar Network800.node110 	number_of_messages 	2
scalar Network800.node110 	discovery_latency 	5424
scalar Network800.node110 	number_of_desired_resources 	20
scalar Network800.node110 	query_homogenity_rate 	33.333333333333
scalar Network800.node110 	qrecord_time 	13292.48231557
scalar Network800.node110 	discovery_resolution_rate 	0
scalar Network800.node30 	rate_of_requesters 	1
scalar Network800.node30 	number_of_resources 	44000
scalar Network800.node30 	time_period 	3
scalar Network800.node30 	number_of_messages 	2
scalar Network800.node30 	discovery_latency 	5220
scalar Network800.node30 	number_of_desired_resources 	20
scalar Network800.node30 	query_homogenity_rate 	33.333333333333
scalar Network800.node30 	qrecord_time 	13378.285077545
scalar Network800.node30 	discovery_resolution_rate 	0
scalar Network800.node260 	rate_of_requesters 	1
scalar Network800.node260 	number_of_resources 	44000
scalar Network800.node260 	time_period 	3
scalar Network800.node260 	number_of_messages 	2
scalar Network800.node260 	discovery_latency 	5232
scalar Network800.node260 	number_of_desired_resources 	20
scalar Network800.node260 	query_homogenity_rate 	33.333333333333
scalar Network800.node260 	qrecord_time 	13438.340952473
scalar Network800.node260 	discovery_resolution_rate 	0
scalar Network800.node310 	rate_of_requesters 	1
scalar Network800.node310 	number_of_resources 	44000
scalar Network800.node310 	time_period 	5
scalar Network800.node310 	number_of_messages 	2
scalar Network800.node310 	discovery_latency 	5304
scalar Network800.node310 	number_of_desired_resources 	20
scalar Network800.node310 	query_homogenity_rate 	33.333333333333
scalar Network800.node310 	qrecord_time 	13451.944281004
scalar Network800.node310 	discovery_resolution_rate 	0
scalar Network800.node340 	rate_of_requesters 	1
scalar Network800.node340 	number_of_resources 	44000
scalar Network800.node340 	time_period 	2
scalar Network800.node340 	number_of_messages 	2
scalar Network800.node340 	discovery_latency 	5052
scalar Network800.node340 	number_of_desired_resources 	20
scalar Network800.node340 	query_homogenity_rate 	33.333333333333
[...]
scalar Network800.node580 	number_of_desired_resources 	20
scalar Network800.node580 	query_homogenity_rate 	33.333333333333
scalar Network800.node580 	qrecord_time 	57179.170100384
scalar Network800.node580 	discovery_resolution_rate 	100
scalar Network800.node270 	rate_of_requesters 	1
scalar Network800.node270 	number_of_resources 	44000
scalar Network800.node270 	time_period 	10
scalar Network800.node270 	number_of_messages 	64
scalar Network800.node270 	discovery_latency 	4728
scalar Network800.node270 	number_of_desired_resources 	20
scalar Network800.node270 	query_homogenity_rate 	33.333333333333
scalar Network800.node270 	qrecord_time 	57255.354722932
scalar Network800.node270 	discovery_resolution_rate 	66.666666666667
scalar Network800.node600 	rate_of_requesters 	1
scalar Network800.node600 	number_of_resources 	44000
scalar Network800.node600 	time_period 	9
scalar Network800.node600 	number_of_messages 	15
scalar Network800.node600 	discovery_latency 	4908
scalar Network800.node600 	number_of_desired_resources 	20
scalar Network800.node600 	query_homogenity_rate 	33.333333333333
scalar Network800.node600 	qrecord_time 	57278.794598363
scalar Network800.node600 	discovery_resolution_rate 	66.666666666667
scalar Network800.node550 	rate_of_requesters 	1
scalar Network800.node550 	number_of_resources 	44000
scalar Network800.node550 	time_period 	9
scalar Network800.node550 	number_of_messages 	53
scalar Network800.node550 	discovery_latency 	4716
scalar Network800.node550 	number_of_desired_resources 	20
scalar Network800.node550 	query_homogenity_rate 	33.333333333333
scalar Network800.node550 	qrecord_time 	57361.763857763
scalar Network800.node550 	discovery_resolution_rate 	66.666666666667
scalar Network800.node710 	rate_of_requesters 	1
scalar Network800.node710 	number_of_resources 	44000
scalar Network800.node710 	time_period 	10
scalar Network800.node710 	number_of_messages 	67
scalar Network800.node710 	discovery_latency 	4668
scalar Network800.node710 	number_of_desired_resources 	20
scalar Network800.node710 	query_homogenity_rate 	33.333333333333
scalar Network800.node710 	qrecord_time 	57526.088873314
scalar Network800.node710 	discovery_resolution_rate 	66.666666666667
scalar Network800.node550 	rate_of_requesters 	1
scalar Network800.node550 	number_of_resources 	44000
scalar Network800.node550 	time_period 	10
scalar Network800.node550 	number_of_messages 	34
scalar Network800.node550 	discovery_latency 	4788
scalar Network800.node550 	number_of_desired_resources 	20
scalar Network800.node550 	query_homogenity_rate 	33.333333333333
scalar Network800.node550 	qrecord_time 	57616.028678271
scalar Network800.node550 	discovery_resolution_rate 	66.666666666667
scalar Network800.node360 	rate_of_requesters 	1
scalar Network800.node360 	number_of_resources 	44000
scalar Network800.node360 	time_period 	9
scalar Network800.node360 	number_of_messages 	21
scalar Network800.node360 	discovery_latency 	4704
scalar Network800.node360 	number_of_desired_resources 	20
scalar Network800.node360 	query_homogenity_rate 	33.333333333333
scalar Network800.node360 	qrecord_time 	57881.675748411
scalar Network800.node360 	discovery_resolution_rate 	66.666666666667
scalar Network800.node180 	rate_of_requesters 	1
scalar Network800.node180 	number_of_resources 	44000
scalar Network800.node180 	time_period 	9
scalar Network800.node180 	number_of_messages 	114
scalar Network800.node180 	discovery_latency 	4728
scalar Network800.node180 	number_of_desired_resources 	20
scalar Network800.node180 	query_homogenity_rate 	33.333333333333
scalar Network800.node180 	qrecord_time 	58145.620365042
scalar Network800.node180 	discovery_resolution_rate 	66.666666666667
scalar Network800.node210 	rate_of_requesters 	1
scalar Network800.node210 	number_of_resources 	44000
scalar Network800.node210 	time_period 	10
scalar Network800.node210 	number_of_messages 	12
scalar Network800.node210 	discovery_latency 	4560
scalar Network800.node210 	number_of_desired_resources 	20
scalar Network800.node210 	query_homogenity_rate 	33.333333333333
scalar Network800.node210 	qrecord_time 	58148.88547489
scalar Network800.node210 	discovery_resolution_rate 	66.666666666667
scalar Network800.node160 	rate_of_requesters 	1
scalar Network800.node160 	number_of_resources 	44000
scalar Network800.node160 	time_period 	9
scalar Network800.node160 	number_of_messages 	51
scalar Network800.node160 	discovery_latency 	882.00000000001
scalar Network800.node160 	number_of_desired_resources 	20
scalar Network800.node160 	query_homogenity_rate 	33.333333333333
scalar Network800.node160 	qrecord_time 	58278.173179287
scalar Network800.node160 	discovery_resolution_rate 	100
scalar Network800.node10 	rate_of_requesters 	1
scalar Network800.node10 	number_of_resources 	44000
scalar Network800.node10 	time_period 	10
scalar Network800.node10 	number_of_messages 	14
scalar Network800.node10 	discovery_latency 	4596
scalar Network800.node10 	number_of_desired_resources 	20
scalar Network800.node10 	query_homogenity_rate 	33.333333333333
scalar Network800.node10 	qrecord_time 	58457.344728352
scalar Network800.node10 	discovery_resolution_rate 	66.666666666667
scalar Network800.node160 	rate_of_requesters 	1
scalar Network800.node160 	number_of_resources 	44000
scalar Network800.node160 	time_period 	10
scalar Network800.node160 	number_of_messages 	37
scalar Network800.node160 	discovery_latency 	360
scalar Network800.node160 	number_of_desired_resources 	20
scalar Network800.node160 	query_homogenity_rate 	33.333333333333
scalar Network800.node160 	qrecord_time 	58684.201928934
scalar Network800.node160 	discovery_resolution_rate 	100
scalar Network800.node360 	rate_of_requesters 	1
scalar Network800.node360 	number_of_resources 	44000
scalar Network800.node360 	time_period 	10
scalar Network800.node360 	number_of_messages 	74
scalar Network800.node360 	discovery_latency 	1164
scalar Network800.node360 	number_of_desired_resources 	20
scalar Network800.node360 	query_homogenity_rate 	33.333333333333
scalar Network800.node360 	qrecord_time 	58888.997030873
scalar Network800.node360 	discovery_resolution_rate 	100
scalar Network800.node180 	rate_of_requesters 	1
scalar Network800.node180 	number_of_resources 	44000
scalar Network800.node180 	time_period 	10
scalar Network800.node180 	number_of_messages 	13
scalar Network800.node180 	discovery_latency 	4680
scalar Network800.node180 	number_of_desired_resources 	20
scalar Network800.node180 	query_homogenity_rate 	33.333333333333
scalar Network800.node180 	qrecord_time 	59104.532270242
scalar Network800.node180 	discovery_resolution_rate 	66.666666666667
scalar Network800.node760 	rate_of_requesters 	1
scalar Network800.node760 	number_of_resources 	44000
scalar Network800.node760 	time_period 	10
scalar Network800.node760 	number_of_messages 	30
scalar Network800.node760 	discovery_latency 	4728
scalar Network800.node760 	number_of_desired_resources 	20
scalar Network800.node760 	query_homogenity_rate 	33.333333333333
scalar Network800.node760 	qrecord_time 	59177.905013159
scalar Network800.node760 	discovery_resolution_rate 	66.666666666667
scalar Network800.node450 	rate_of_requesters 	1
scalar Network800.node450 	number_of_resources 	44000
scalar Network800.node450 	time_period 	9
scalar Network800.node450 	number_of_messages 	254
scalar Network800.node450 	discovery_latency 	4776
scalar Network800.node450 	number_of_desired_resources 	20
scalar Network800.node450 	query_homogenity_rate 	33.333333333333
scalar Network800.node450 	qrecord_time 	60406.398365504
scalar Network800.node450 	discovery_resolution_rate 	83.333333333333
scalar Network800.node600 	rate_of_requesters 	1
scalar Network800.node600 	number_of_resources 	44000
scalar Network800.node600 	time_period 	10
scalar Network800.node600 	number_of_messages 	195
scalar Network800.node600 	discovery_latency 	3876
scalar Network800.node600 	number_of_desired_resources 	20
scalar Network800.node600 	query_homogenity_rate 	33.333333333333
scalar Network800.node600 	qrecord_time 	61532.598769984
scalar Network800.node600 	discovery_resolution_rate 	100
scalar Network800.node700 	rate_of_requesters 	1
scalar Network800.node700 	number_of_resources 	44000
scalar Network800.node700 	time_period 	4
scalar Network800.node700 	number_of_messages 	37
scalar Network800.node700 	discovery_latency 	528
scalar Network800.node700 	number_of_desired_resources 	20
scalar Network800.node700 	query_homogenity_rate 	33.333333333333
scalar Network800.node700 	qrecord_time 	61912.046013664
scalar Network800.node700 	discovery_resolution_rate 	100
scalar Network800.node140 	rate_of_requesters 	1
scalar Network800.node140 	number_of_resources 	44000
scalar Network800.node140 	time_period 	9
scalar Network800.node140 	number_of_messages 	46
scalar Network800.node140 	discovery_latency 	828
scalar Network800.node140 	number_of_desired_resources 	20
scalar Network800.node140 	query_homogenity_rate 	33.333333333333
scalar Network800.node140 	qrecord_time 	61912.888732772
scalar Network800.node140 	discovery_resolution_rate 	100
scalar Network800.node790 	rate_of_requesters 	1
scalar Network800.node790 	number_of_resources 	44000
scalar Network800.node790 	time_period 	9
scalar Network800.node790 	number_of_messages 	24
scalar Network800.node790 	discovery_latency 	4908
scalar Network800.node790 	number_of_desired_resources 	20
scalar Network800.node790 	query_homogenity_rate 	33.333333333333
scalar Network800.node790 	qrecord_time 	62623.557435013
scalar Network800.node790 	discovery_resolution_rate 	66.666666666667
scalar Network800.node770 	rate_of_requesters 	1
scalar Network800.node770 	number_of_resources 	44000
scalar Network800.node770 	time_period 	8
scalar Network800.node770 	number_of_messages 	25
scalar Network800.node770 	discovery_latency 	264
scalar Network800.node770 	number_of_desired_resources 	20
scalar Network800.node770 	query_homogenity_rate 	33.333333333333
scalar Network800.node770 	qrecord_time 	63702.723965784
scalar Network800.node770 	discovery_resolution_rate 	100
scalar Network800.node770 	rate_of_requesters 	1
scalar Network800.node770 	number_of_resources 	44000
scalar Network800.node770 	time_period 	9
scalar Network800.node770 	number_of_messages 	26
scalar Network800.node770 	discovery_latency 	276
scalar Network800.node770 	number_of_desired_resources 	20
scalar Network800.node770 	query_homogenity_rate 	33.333333333333
scalar Network800.node770 	qrecord_time 	63841.095985252
scalar Network800.node770 	discovery_resolution_rate 	100
scalar Network800.node140 	rate_of_requesters 	1
scalar Network800.node140 	number_of_resources 	44000
scalar Network800.node140 	time_period 	10
scalar Network800.node140 	number_of_messages 	32
scalar Network800.node140 	discovery_latency 	456
scalar Network800.node140 	number_of_desired_resources 	20
scalar Network800.node140 	query_homogenity_rate 	33.333333333333
scalar Network800.node140 	qrecord_time 	63891.815886417
scalar Network800.node140 	discovery_resolution_rate 	100
scalar Network800.node190 	rate_of_requesters 	1
scalar Network800.node190 	number_of_resources 	44000
scalar Network800.node190 	time_period 	7
scalar Network800.node190 	number_of_messages 	36
scalar Network800.node190 	discovery_latency 	528
scalar Network800.node190 	number_of_desired_resources 	20
scalar Network800.node190 	query_homogenity_rate 	33.333333333333
scalar Network800.node190 	qrecord_time 	64147.14271324
scalar Network800.node190 	discovery_resolution_rate 	100
scalar Network800.node770 	rate_of_requesters 	1
scalar Network800.node770 	number_of_resources 	44000
scalar Network800.node770 	time_period 	6
scalar Network800.node770 	number_of_messages 	235
scalar Network800.node770 	discovery_latency 	4740
scalar Network800.node770 	number_of_desired_resources 	20
scalar Network800.node770 	query_homogenity_rate 	33.333333333333
scalar Network800.node770 	qrecord_time 	64317.410267676
scalar Network800.node770 	discovery_resolution_rate 	83.333333333333
scalar Network800.node650 	rate_of_requesters 	1
scalar Network800.node650 	number_of_resources 	44000
scalar Network800.node650 	time_period 	9
scalar Network800.node650 	number_of_messages 	51
scalar Network800.node650 	discovery_latency 	780
scalar Network800.node650 	number_of_desired_resources 	20
scalar Network800.node650 	query_homogenity_rate 	33.333333333333
scalar Network800.node650 	qrecord_time 	64393.771289409
scalar Network800.node650 	discovery_resolution_rate 	100
scalar Network800.node790 	rate_of_requesters 	1
scalar Network800.node790 	number_of_resources 	44000
scalar Network800.node790 	time_period 	10
scalar Network800.node790 	number_of_messages 	48
scalar Network800.node790 	discovery_latency 	660
scalar Network800.node790 	number_of_desired_resources 	20
scalar Network800.node790 	query_homogenity_rate 	33.333333333333
scalar Network800.node790 	qrecord_time 	64403.350058149
scalar Network800.node790 	discovery_resolution_rate 	100
scalar Network800.node780 	rate_of_requesters 	1
scalar Network800.node780 	number_of_resources 	44000
scalar Network800.node780 	time_period 	10
scalar Network800.node780 	number_of_messages 	16
scalar Network800.node780 	discovery_latency 	4692
scalar Network800.node780 	number_of_desired_resources 	20
scalar Network800.node780 	query_homogenity_rate 	33.333333333333
scalar Network800.node780 	qrecord_time 	64468.881800911
scalar Network800.node780 	discovery_resolution_rate 	66.666666666667
scalar Network800.node770 	rate_of_requesters 	1
scalar Network800.node770 	number_of_resources 	44000
scalar Network800.node770 	time_period 	7
scalar Network800.node770 	number_of_messages 	236
scalar Network800.node770 	discovery_latency 	4716
scalar Network800.node770 	number_of_desired_resources 	20
scalar Network800.node770 	query_homogenity_rate 	33.333333333333
scalar Network800.node770 	qrecord_time 	65218.798537283
scalar Network800.node770 	discovery_resolution_rate 	83.333333333333
scalar Network800.node190 	rate_of_requesters 	1
scalar Network800.node190 	number_of_resources 	44000
scalar Network800.node190 	time_period 	8
scalar Network800.node190 	number_of_messages 	19
scalar Network800.node190 	discovery_latency 	216.00000000001
scalar Network800.node190 	number_of_desired_resources 	20
scalar Network800.node190 	query_homogenity_rate 	33.333333333333
scalar Network800.node190 	qrecord_time 	68986.874793951
scalar Network800.node190 	discovery_resolution_rate 	100
scalar Network800.node700 	rate_of_requesters 	1
scalar Network800.node700 	number_of_resources 	44000
scalar Network800.node700 	time_period 	6
scalar Network800.node700 	number_of_messages 	39
scalar Network800.node700 	discovery_latency 	540.00000000001
scalar Network800.node700 	number_of_desired_resources 	20
scalar Network800.node700 	query_homogenity_rate 	33.333333333333
scalar Network800.node700 	qrecord_time 	69483.509388936
scalar Network800.node700 	discovery_resolution_rate 	100
scalar Network800.node700 	rate_of_requesters 	1
scalar Network800.node700 	number_of_resources 	44000
scalar Network800.node700 	time_period 	5
scalar Network800.node700 	number_of_messages 	226
scalar Network800.node700 	discovery_latency 	4944
scalar Network800.node700 	number_of_desired_resources 	20
scalar Network800.node700 	query_homogenity_rate 	33.333333333333
scalar Network800.node700 	qrecord_time 	69658.044340504
scalar Network800.node700 	discovery_resolution_rate 	83.333333333333
scalar Network800.node450 	rate_of_requesters 	1
scalar Network800.node450 	number_of_resources 	44000
scalar Network800.node450 	time_period 	10
scalar Network800.node450 	number_of_messages 	228
scalar Network800.node450 	discovery_latency 	4776
scalar Network800.node450 	number_of_desired_resources 	20
scalar Network800.node450 	query_homogenity_rate 	33.333333333333
scalar Network800.node450 	qrecord_time 	70112.878244342
scalar Network800.node450 	discovery_resolution_rate 	83.333333333333
scalar Network800.node650 	rate_of_requesters 	1
scalar Network800.node650 	number_of_resources 	44000
scalar Network800.node650 	time_period 	10
scalar Network800.node650 	number_of_messages 	32
scalar Network800.node650 	discovery_latency 	396
scalar Network800.node650 	number_of_desired_resources 	20
scalar Network800.node650 	query_homogenity_rate 	33.333333333333
scalar Network800.node650 	qrecord_time 	71639.356031335
scalar Network800.node650 	discovery_resolution_rate 	100
scalar Network800.node770 	rate_of_requesters 	1
scalar Network800.node770 	number_of_resources 	44000
scalar Network800.node770 	time_period 	10
scalar Network800.node770 	number_of_messages 	25
scalar Network800.node770 	discovery_latency 	264
scalar Network800.node770 	number_of_desired_resources 	20
scalar Network800.node770 	query_homogenity_rate 	33.333333333333
scalar Network800.node770 	qrecord_time 	73137.064033155
scalar Network800.node770 	discovery_resolution_rate 	100
scalar Network800.node190 	rate_of_requesters 	1
scalar Network800.node190 	number_of_resources 	44000
scalar Network800.node190 	time_period 	9
scalar Network800.node190 	number_of_messages 	19
scalar Network800.node190 	discovery_latency 	215.99999999999
scalar Network800.node190 	number_of_desired_resources 	20
scalar Network800.node190 	query_homogenity_rate 	33.333333333333
scalar Network800.node190 	qrecord_time 	74482.937906371
scalar Network800.node190 	discovery_resolution_rate 	100
scalar Network800.node700 	rate_of_requesters 	1
scalar Network800.node700 	number_of_resources 	44000
scalar Network800.node700 	time_period 	7
scalar Network800.node700 	number_of_messages 	22
scalar Network800.node700 	discovery_latency 	215.99999999999
scalar Network800.node700 	number_of_desired_resources 	20
scalar Network800.node700 	query_homogenity_rate 	33.333333333333
scalar Network800.node700 	qrecord_time 	79304.736082571
scalar Network800.node700 	discovery_resolution_rate 	100
scalar Network800.node190 	rate_of_requesters 	1
scalar Network800.node190 	number_of_resources 	44000
scalar Network800.node190 	time_period 	10
scalar Network800.node190 	number_of_messages 	25
scalar Network800.node190 	discovery_latency 	348
scalar Network800.node190 	number_of_desired_resources 	20
scalar Network800.node190 	query_homogenity_rate 	33.333333333333
scalar Network800.node190 	qrecord_time 	81399.541548388
scalar Network800.node190 	discovery_resolution_rate 	100
scalar Network800.node700 	rate_of_requesters 	1
scalar Network800.node700 	number_of_resources 	44000
scalar Network800.node700 	time_period 	8
scalar Network800.node700 	number_of_messages 	22
scalar Network800.node700 	discovery_latency 	215.99999999999
scalar Network800.node700 	number_of_desired_resources 	20
scalar Network800.node700 	query_homogenity_rate 	33.333333333333
scalar Network800.node700 	qrecord_time 	88540.532726447
scalar Network800.node700 	discovery_resolution_rate 	100
scalar Network800.node700 	rate_of_requesters 	1
scalar Network800.node700 	number_of_resources 	44000
scalar Network800.node700 	time_period 	9
scalar Network800.node700 	number_of_messages 	30
scalar Network800.node700 	discovery_latency 	384
scalar Network800.node700 	number_of_desired_resources 	20
scalar Network800.node700 	query_homogenity_rate 	33.333333333333
scalar Network800.node700 	qrecord_time 	88981.958852892
scalar Network800.node700 	discovery_resolution_rate 	100
scalar Network800.node700 	rate_of_requesters 	1
scalar Network800.node700 	number_of_resources 	44000
scalar Network800.node700 	time_period 	10
scalar Network800.node700 	number_of_messages 	22
scalar Network800.node700 	discovery_latency 	215.99999999999
scalar Network800.node700 	number_of_desired_resources 	20
scalar Network800.node700 	query_homogenity_rate 	33.333333333333
scalar Network800.node700 	qrecord_time 	94070.460693229
scalar Network800.node700 	discovery_resolution_rate 	100
