version 2
run net900-0-20150717-09:16:22-2822
attr as 1
attr configname net900
attr datetime 20150717-09:16:22
attr dnor 20
attr experiment net900
attr inifile omnetpp.ini
attr iterationvars "$rhdrq=3, $dnor=20, $as=1"
attr iterationvars2 "$rhdrq=3, $dnor=20, $as=1, $repetition=0"
attr measurement "$rhdrq=3, $dnor=20, $as=1"
attr network Network900
attr processid 2822
attr repetition 0
attr replication #0
attr resultdir results
attr rhdrq 3
attr runnumber 0
attr seedset 0

scalar . 	as 	1
scalar . 	dnor 	20
scalar . 	rhdrq 	3
scalar Network900.node180 	rate_of_requesters 	1
scalar Network900.node180 	number_of_resources 	49500
scalar Network900.node180 	time_period 	1
scalar Network900.node180 	number_of_messages 	19
scalar Network900.node180 	discovery_latency 	108
scalar Network900.node180 	number_of_desired_resources 	20
scalar Network900.node180 	query_homogenity_rate 	33.333333333333
scalar Network900.node180 	qrecord_time 	4798
scalar Network900.node180 	discovery_resolution_rate 	100
scalar Network900.node300 	rate_of_requesters 	1
scalar Network900.node300 	number_of_resources 	49500
scalar Network900.node300 	time_period 	1
scalar Network900.node300 	number_of_messages 	28
scalar Network900.node300 	discovery_latency 	240
scalar Network900.node300 	number_of_desired_resources 	20
scalar Network900.node300 	query_homogenity_rate 	33.333333333333
scalar Network900.node300 	qrecord_time 	4960
scalar Network900.node300 	discovery_resolution_rate 	100
scalar Network900.node350 	rate_of_requesters 	1
scalar Network900.node350 	number_of_resources 	49500
scalar Network900.node350 	time_period 	1
scalar Network900.node350 	number_of_messages 	30
scalar Network900.node350 	discovery_latency 	408
scalar Network900.node350 	number_of_desired_resources 	20
scalar Network900.node350 	query_homogenity_rate 	33.333333333333
scalar Network900.node350 	qrecord_time 	5098
scalar Network900.node350 	discovery_resolution_rate 	100
scalar Network900.node170 	rate_of_requesters 	1
scalar Network900.node170 	number_of_resources 	49500
scalar Network900.node170 	time_period 	1
scalar Network900.node170 	number_of_messages 	18
scalar Network900.node170 	discovery_latency 	4740
scalar Network900.node170 	number_of_desired_resources 	20
scalar Network900.node170 	query_homogenity_rate 	33.333333333333
scalar Network900.node170 	qrecord_time 	9430
scalar Network900.node170 	discovery_resolution_rate 	66.666666666667
scalar Network900.node430 	rate_of_requesters 	1
scalar Network900.node430 	number_of_resources 	49500
scalar Network900.node430 	time_period 	1
scalar Network900.node430 	number_of_messages 	10
scalar Network900.node430 	discovery_latency 	4884
scalar Network900.node430 	number_of_desired_resources 	20
scalar Network900.node430 	query_homogenity_rate 	33.333333333333
scalar Network900.node430 	qrecord_time 	9574
scalar Network900.node430 	discovery_resolution_rate 	33.333333333333
scalar Network900.node10 	rate_of_requesters 	1
scalar Network900.node10 	number_of_resources 	49500
scalar Network900.node10 	time_period 	1
scalar Network900.node10 	number_of_messages 	13
scalar Network900.node10 	discovery_latency 	4932
scalar Network900.node10 	number_of_desired_resources 	20
scalar Network900.node10 	query_homogenity_rate 	33.333333333333
scalar Network900.node10 	qrecord_time 	9598
scalar Network900.node10 	discovery_resolution_rate 	66.666666666667
scalar Network900.node90 	rate_of_requesters 	1
scalar Network900.node90 	number_of_resources 	49500
scalar Network900.node90 	time_period 	1
scalar Network900.node90 	number_of_messages 	6
scalar Network900.node90 	discovery_latency 	4908
scalar Network900.node90 	number_of_desired_resources 	20
scalar Network900.node90 	query_homogenity_rate 	33.333333333333
scalar Network900.node90 	qrecord_time 	9598
scalar Network900.node90 	discovery_resolution_rate 	33.333333333333
scalar Network900.node60 	rate_of_requesters 	1
scalar Network900.node60 	number_of_resources 	49500
scalar Network900.node60 	time_period 	2
scalar Network900.node60 	number_of_messages 	15
scalar Network900.node60 	discovery_latency 	4884
scalar Network900.node60 	number_of_desired_resources 	20
scalar Network900.node60 	query_homogenity_rate 	33.333333333333
scalar Network900.node60 	qrecord_time 	9622.332736626
scalar Network900.node60 	discovery_resolution_rate 	66.666666666667
scalar Network900.node600 	rate_of_requesters 	1
scalar Network900.node600 	number_of_resources 	49500
scalar Network900.node600 	time_period 	1
scalar Network900.node600 	number_of_messages 	8
scalar Network900.node600 	discovery_latency 	4944
scalar Network900.node600 	number_of_desired_resources 	20
scalar Network900.node600 	query_homogenity_rate 	33.333333333333
scalar Network900.node600 	qrecord_time 	9640
scalar Network900.node600 	discovery_resolution_rate 	33.333333333333
scalar Network900.node120 	rate_of_requesters 	1
scalar Network900.node120 	number_of_resources 	49500
scalar Network900.node120 	time_period 	1
scalar Network900.node120 	number_of_messages 	6
scalar Network900.node120 	discovery_latency 	4932
scalar Network900.node120 	number_of_desired_resources 	20
scalar Network900.node120 	query_homogenity_rate 	33.333333333333
scalar Network900.node120 	qrecord_time 	9646
scalar Network900.node120 	discovery_resolution_rate 	33.333333333333
scalar Network900.node620 	rate_of_requesters 	1
scalar Network900.node620 	number_of_resources 	49500
scalar Network900.node620 	time_period 	1
scalar Network900.node620 	number_of_messages 	11
scalar Network900.node620 	discovery_latency 	4884
scalar Network900.node620 	number_of_desired_resources 	20
scalar Network900.node620 	query_homogenity_rate 	33.333333333333
scalar Network900.node620 	qrecord_time 	9658
scalar Network900.node620 	discovery_resolution_rate 	33.333333333333
scalar Network900.node790 	rate_of_requesters 	1
scalar Network900.node790 	number_of_resources 	49500
scalar Network900.node790 	time_period 	1
scalar Network900.node790 	number_of_messages 	6
scalar Network900.node790 	discovery_latency 	4980
scalar Network900.node790 	number_of_desired_resources 	20
scalar Network900.node790 	query_homogenity_rate 	33.333333333333
scalar Network900.node790 	qrecord_time 	9670
scalar Network900.node790 	discovery_resolution_rate 	33.333333333333
scalar Network900.node880 	rate_of_requesters 	1
scalar Network900.node880 	number_of_resources 	49500
scalar Network900.node880 	time_period 	1
scalar Network900.node880 	number_of_messages 	13
scalar Network900.node880 	discovery_latency 	4908
scalar Network900.node880 	number_of_desired_resources 	20
scalar Network900.node880 	query_homogenity_rate 	33.333333333333
scalar Network900.node880 	qrecord_time 	9676
scalar Network900.node880 	discovery_resolution_rate 	33.333333333333
scalar Network900.node490 	rate_of_requesters 	1
scalar Network900.node490 	number_of_resources 	49500
scalar Network900.node490 	time_period 	1
scalar Network900.node490 	number_of_messages 	6
scalar Network900.node490 	discovery_latency 	4956
scalar Network900.node490 	number_of_desired_resources 	20
scalar Network900.node490 	query_homogenity_rate 	33.333333333333
scalar Network900.node490 	qrecord_time 	9682
scalar Network900.node490 	discovery_resolution_rate 	33.333333333333
scalar Network900.node660 	rate_of_requesters 	1
scalar Network900.node660 	number_of_resources 	49500
scalar Network900.node660 	time_period 	1
scalar Network900.node660 	number_of_messages 	15
scalar Network900.node660 	discovery_latency 	5004
scalar Network900.node660 	number_of_desired_resources 	20
scalar Network900.node660 	query_homogenity_rate 	33.333333333333
scalar Network900.node660 	qrecord_time 	9694
scalar Network900.node660 	discovery_resolution_rate 	33.333333333333
scalar Network900.node460 	rate_of_requesters 	1
scalar Network900.node460 	number_of_resources 	49500
scalar Network900.node460 	time_period 	1
scalar Network900.node460 	number_of_messages 	18
scalar Network900.node460 	discovery_latency 	5016
scalar Network900.node460 	number_of_desired_resources 	20
scalar Network900.node460 	query_homogenity_rate 	33.333333333333
scalar Network900.node460 	qrecord_time 	9700
scalar Network900.node460 	discovery_resolution_rate 	33.333333333333
scalar Network900.node370 	rate_of_requesters 	1
scalar Network900.node370 	number_of_resources 	49500
scalar Network900.node370 	time_period 	1
scalar Network900.node370 	number_of_messages 	11
scalar Network900.node370 	discovery_latency 	4932
scalar Network900.node370 	number_of_desired_resources 	20
scalar Network900.node370 	query_homogenity_rate 	33.333333333333
scalar Network900.node370 	qrecord_time 	9700
scalar Network900.node370 	discovery_resolution_rate 	33.333333333333
scalar Network900.node0 	rate_of_requesters 	1
scalar Network900.node0 	number_of_resources 	49500
scalar Network900.node0 	time_period 	1
scalar Network900.node0 	number_of_messages 	10
scalar Network900.node0 	discovery_latency 	5028
scalar Network900.node0 	number_of_desired_resources 	20
scalar Network900.node0 	query_homogenity_rate 	33.333333333333
scalar Network900.node0 	qrecord_time 	9700
scalar Network900.node0 	discovery_resolution_rate 	33.333333333333
scalar Network900.node150 	rate_of_requesters 	1
scalar Network900.node150 	number_of_resources 	49500
scalar Network900.node150 	time_period 	1
scalar Network900.node150 	number_of_messages 	11
scalar Network900.node150 	discovery_latency 	4944
scalar Network900.node150 	number_of_desired_resources 	20
scalar Network900.node150 	query_homogenity_rate 	33.333333333333
scalar Network900.node150 	qrecord_time 	9712
scalar Network900.node150 	discovery_resolution_rate 	33.333333333333
scalar Network900.node850 	rate_of_requesters 	1
scalar Network900.node850 	number_of_resources 	49500
scalar Network900.node850 	time_period 	1
scalar Network900.node850 	number_of_messages 	6
scalar Network900.node850 	discovery_latency 	4980
scalar Network900.node850 	number_of_desired_resources 	20
scalar Network900.node850 	query_homogenity_rate 	33.333333333333
scalar Network900.node850 	qrecord_time 	9730
scalar Network900.node850 	discovery_resolution_rate 	33.333333333333
scalar Network900.node100 	rate_of_requesters 	1
scalar Network900.node100 	number_of_resources 	49500
scalar Network900.node100 	time_period 	1
scalar Network900.node100 	number_of_messages 	16
scalar Network900.node100 	discovery_latency 	5016
scalar Network900.node100 	number_of_desired_resources 	20
scalar Network900.node100 	query_homogenity_rate 	33.333333333333
scalar Network900.node100 	qrecord_time 	9730
scalar Network900.node100 	discovery_resolution_rate 	33.333333333333
scalar Network900.node870 	rate_of_requesters 	1
scalar Network900.node870 	number_of_resources 	49500
scalar Network900.node870 	time_period 	1
scalar Network900.node870 	number_of_messages 	6
scalar Network900.node870 	discovery_latency 	5004
scalar Network900.node870 	number_of_desired_resources 	20
scalar Network900.node870 	query_homogenity_rate 	33.333333333333
scalar Network900.node870 	qrecord_time 	9736
scalar Network900.node870 	discovery_resolution_rate 	33.333333333333
scalar Network900.node380 	rate_of_requesters 	1
scalar Network900.node380 	number_of_resources 	49500
scalar Network900.node380 	time_period 	1
scalar Network900.node380 	number_of_messages 	6
scalar Network900.node380 	discovery_latency 	5016
scalar Network900.node380 	number_of_desired_resources 	20
scalar Network900.node380 	query_homogenity_rate 	33.333333333333
scalar Network900.node380 	qrecord_time 	9748
scalar Network900.node380 	discovery_resolution_rate 	33.333333333333
scalar Network900.node390 	rate_of_requesters 	1
scalar Network900.node390 	number_of_resources 	49500
scalar Network900.node390 	time_period 	1
scalar Network900.node390 	number_of_messages 	15
scalar Network900.node390 	discovery_latency 	5064
scalar Network900.node390 	number_of_desired_resources 	20
scalar Network900.node390 	query_homogenity_rate 	33.333333333333
scalar Network900.node390 	qrecord_time 	9772
scalar Network900.node390 	discovery_resolution_rate 	33.333333333333
scalar Network900.node50 	rate_of_requesters 	1
scalar Network900.node50 	number_of_resources 	49500
scalar Network900.node50 	time_period 	1
scalar Network900.node50 	number_of_messages 	6
scalar Network900.node50 	discovery_latency 	5100
scalar Network900.node50 	number_of_desired_resources 	20
scalar Network900.node50 	query_homogenity_rate 	33.333333333333
scalar Network900.node50 	qrecord_time 	9790
scalar Network900.node50 	discovery_resolution_rate 	33.333333333333
scalar Network900.node340 	rate_of_requesters 	1
scalar Network900.node340 	number_of_resources 	49500
scalar Network900.node340 	time_period 	1
scalar Network900.node340 	number_of_messages 	10
scalar Network900.node340 	discovery_latency 	5052
scalar Network900.node340 	number_of_desired_resources 	20
scalar Network900.node340 	query_homogenity_rate 	33.333333333333
scalar Network900.node340 	qrecord_time 	9790
scalar Network900.node340 	discovery_resolution_rate 	33.333333333333
scalar Network900.node260 	rate_of_requesters 	1
scalar Network900.node260 	number_of_resources 	49500
scalar Network900.node260 	time_period 	1
scalar Network900.node260 	number_of_messages 	7
scalar Network900.node260 	discovery_latency 	4980
scalar Network900.node260 	number_of_desired_resources 	20
scalar Network900.node260 	query_homogenity_rate 	33.333333333333
scalar Network900.node260 	qrecord_time 	9814
scalar Network900.node260 	discovery_resolution_rate 	33.333333333333
scalar Network900.node690 	rate_of_requesters 	1
scalar Network900.node690 	number_of_resources 	49500
scalar Network900.node690 	time_period 	1
scalar Network900.node690 	number_of_messages 	14
scalar Network900.node690 	discovery_latency 	5160
scalar Network900.node690 	number_of_desired_resources 	20
scalar Network900.node690 	query_homogenity_rate 	33.333333333333
scalar Network900.node690 	qrecord_time 	9856
scalar Network900.node690 	discovery_resolution_rate 	33.333333333333
scalar Network900.node70 	rate_of_requesters 	1
scalar Network900.node70 	number_of_resources 	49500
scalar Network900.node70 	time_period 	1
scalar Network900.node70 	number_of_messages 	6
scalar Network900.node70 	discovery_latency 	5136
scalar Network900.node70 	number_of_desired_resources 	20
scalar Network900.node70 	query_homogenity_rate 	33.333333333333
scalar Network900.node70 	qrecord_time 	9868
scalar Network900.node70 	discovery_resolution_rate 	33.333333333333
scalar Network900.node530 	rate_of_requesters 	1
scalar Network900.node530 	number_of_resources 	49500
scalar Network900.node530 	time_period 	1
scalar Network900.node530 	number_of_messages 	4
scalar Network900.node530 	discovery_latency 	5184
scalar Network900.node530 	number_of_desired_resources 	20
scalar Network900.node530 	query_homogenity_rate 	33.333333333333
scalar Network900.node530 	qrecord_time 	9880
scalar Network900.node530 	discovery_resolution_rate 	33.333333333333
scalar Network900.node330 	rate_of_requesters 	1
scalar Network900.node330 	number_of_resources 	49500
scalar Network900.node330 	time_period 	1
scalar Network900.node330 	number_of_messages 	6
scalar Network900.node330 	discovery_latency 	5268
scalar Network900.node330 	number_of_desired_resources 	20
scalar Network900.node330 	query_homogenity_rate 	33.333333333333
scalar Network900.node330 	qrecord_time 	10000
scalar Network900.node330 	discovery_resolution_rate 	33.333333333333
scalar Network900.node840 	rate_of_requesters 	1
scalar Network900.node840 	number_of_resources 	49500
scalar Network900.node840 	time_period 	1
scalar Network900.node840 	number_of_messages 	11
scalar Network900.node840 	discovery_latency 	5244
scalar Network900.node840 	number_of_desired_resources 	20
scalar Network900.node840 	query_homogenity_rate 	33.333333333333
scalar Network900.node840 	qrecord_time 	10018
scalar Network900.node840 	discovery_resolution_rate 	33.333333333333
scalar Network900.node370 	rate_of_requesters 	1
scalar Network900.node370 	number_of_resources 	49500
scalar Network900.node370 	time_period 	3
scalar Network900.node370 	number_of_messages 	2
scalar Network900.node370 	discovery_latency 	5106
scalar Network900.node370 	number_of_desired_resources 	20
scalar Network900.node370 	query_homogenity_rate 	33.333333333333
scalar Network900.node370 	qrecord_time 	10020.34869238
scalar Network900.node370 	discovery_resolution_rate 	0
scalar Network900.node20 	rate_of_requesters 	1
scalar Network900.node20 	number_of_resources 	49500
scalar Network900.node20 	time_period 	1
scalar Network900.node20 	number_of_messages 	233
scalar Network900.node20 	discovery_latency 	5322
scalar Network900.node20 	number_of_desired_resources 	20
scalar Network900.node20 	query_homogenity_rate 	33.333333333333
scalar Network900.node20 	qrecord_time 	10048
scalar Network900.node20 	discovery_resolution_rate 	16.666666666667
scalar Network900.node400 	rate_of_requesters 	1
scalar Network900.node400 	number_of_resources 	49500
scalar Network900.node400 	time_period 	1
scalar Network900.node400 	number_of_messages 	2
scalar Network900.node400 	discovery_latency 	5322
scalar Network900.node400 	number_of_desired_resources 	20
scalar Network900.node400 	query_homogenity_rate 	33.333333333333
scalar Network900.node400 	qrecord_time 	10054
scalar Network900.node400 	discovery_resolution_rate 	0
scalar Network900.node580 	rate_of_requesters 	1
scalar Network900.node580 	number_of_resources 	49500
scalar Network900.node580 	time_period 	1
scalar Network900.node580 	number_of_messages 	2
scalar Network900.node580 	discovery_latency 	5406
scalar Network900.node580 	number_of_desired_resources 	20
scalar Network900.node580 	query_homogenity_rate 	33.333333333333
scalar Network900.node580 	qrecord_time 	10072
scalar Network900.node580 	discovery_resolution_rate 	0
scalar Network900.node230 	rate_of_requesters 	1
scalar Network900.node230 	number_of_resources 	49500
scalar Network900.node230 	time_period 	1
scalar Network900.node230 	number_of_messages 	2
scalar Network900.node230 	discovery_latency 	5346
scalar Network900.node230 	number_of_desired_resources 	20
scalar Network900.node230 	query_homogenity_rate 	33.333333333333
scalar Network900.node230 	qrecord_time 	10102
scalar Network900.node230 	discovery_resolution_rate 	0
scalar Network900.node550 	rate_of_requesters 	1
scalar Network900.node550 	number_of_resources 	49500
scalar Network900.node550 	time_period 	1
scalar Network900.node550 	number_of_messages 	2
scalar Network900.node550 	discovery_latency 	5382
scalar Network900.node550 	number_of_desired_resources 	20
scalar Network900.node550 	query_homogenity_rate 	33.333333333333
scalar Network900.node550 	qrecord_time 	10120
scalar Network900.node550 	discovery_resolution_rate 	0
scalar Network900.node760 	rate_of_requesters 	1
scalar Network900.node760 	number_of_resources 	49500
scalar Network900.node760 	time_period 	1
scalar Network900.node760 	number_of_messages 	2
scalar Network900.node760 	discovery_latency 	5334
scalar Network900.node760 	number_of_desired_resources 	20
scalar Network900.node760 	query_homogenity_rate 	33.333333333333
scalar Network900.node760 	qrecord_time 	10132
scalar Network900.node760 	discovery_resolution_rate 	0
scalar Network900.node700 	rate_of_requesters 	1
scalar Network900.node700 	number_of_resources 	49500
scalar Network900.node700 	time_period 	1
scalar Network900.node700 	number_of_messages 	2
scalar Network900.node700 	discovery_latency 	5454
scalar Network900.node700 	number_of_desired_resources 	20
scalar Network900.node700 	query_homogenity_rate 	33.333333333333
scalar Network900.node700 	qrecord_time 	10144
scalar Network900.node700 	discovery_resolution_rate 	0
scalar Network900.node730 	rate_of_requesters 	1
scalar Network900.node730 	number_of_resources 	49500
scalar Network900.node730 	time_period 	1
scalar Network900.node730 	number_of_messages 	20
scalar Network900.node730 	discovery_latency 	5418
scalar Network900.node730 	number_of_desired_resources 	20
scalar Network900.node730 	query_homogenity_rate 	33.333333333333
scalar Network900.node730 	qrecord_time 	10144
scalar Network900.node730 	discovery_resolution_rate 	66.666666666667
scalar Network900.node670 	rate_of_requesters 	1
scalar Network900.node670 	number_of_resources 	49500
scalar Network900.node670 	time_period 	1
scalar Network900.node670 	number_of_messages 	2
scalar Network900.node670 	discovery_latency 	5418
scalar Network900.node670 	number_of_desired_resources 	20
scalar Network900.node670 	query_homogenity_rate 	33.333333333333
scalar Network900.node670 	qrecord_time 	10144
scalar Network900.node670 	discovery_resolution_rate 	0
scalar Network900.node820 	rate_of_requesters 	1
scalar Network900.node820 	number_of_resources 	49500
scalar Network900.node820 	time_period 	1
scalar Network900.node820 	number_of_messages 	2
scalar Network900.node820 	discovery_latency 	5418
scalar Network900.node820 	number_of_desired_resources 	20
scalar Network900.node820 	query_homogenity_rate 	33.333333333333
scalar Network900.node820 	qrecord_time 	10150
scalar Network900.node820 	discovery_resolution_rate 	0
scalar Network900.node290 	rate_of_requesters 	1
scalar Network900.node290 	number_of_resources 	49500
scalar Network900.node290 	time_period 	1
scalar Network900.node290 	number_of_messages 	2
scalar Network900.node290 	discovery_latency 	5430
scalar Network900.node290 	number_of_desired_resources 	20
scalar Network900.node290 	query_homogenity_rate 	33.333333333333
scalar Network900.node290 	qrecord_time 	10156
scalar Network900.node290 	discovery_resolution_rate 	0
scalar Network900.node360 	rate_of_requesters 	1
scalar Network900.node360 	number_of_resources 	49500
scalar Network900.node360 	time_period 	1
scalar Network900.node360 	number_of_messages 	2
scalar Network900.node360 	discovery_latency 	5430
scalar Network900.node360 	number_of_desired_resources 	20
scalar Network900.node360 	query_homogenity_rate 	33.333333333333
scalar Network900.node360 	qrecord_time 	10162
scalar Network900.node360 	discovery_resolution_rate 	0
scalar Network900.node500 	rate_of_requesters 	1
scalar Network900.node500 	number_of_resources 	49500
scalar Network900.node500 	time_period 	1
scalar Network900.node500 	number_of_messages 	10
scalar Network900.node500 	discovery_latency 	5502
scalar Network900.node500 	number_of_desired_resources 	20
scalar Network900.node500 	query_homogenity_rate 	33.333333333333
scalar Network900.node500 	qrecord_time 	10168
scalar Network900.node500 	discovery_resolution_rate 	33.333333333333
scalar Network900.node320 	rate_of_requesters 	1
scalar Network900.node320 	number_of_resources 	49500
scalar Network900.node320 	time_period 	1
scalar Network900.node320 	number_of_messages 	2
scalar Network900.node320 	discovery_latency 	5442
scalar Network900.node320 	number_of_desired_resources 	20
scalar Network900.node320 	query_homogenity_rate 	33.333333333333
scalar Network900.node320 	qrecord_time 	10168
scalar Network900.node320 	discovery_resolution_rate 	0
scalar Network900.node780 	rate_of_requesters 	1
scalar Network900.node780 	number_of_resources 	49500
scalar Network900.node780 	time_period 	1
scalar Network900.node780 	number_of_messages 	231
scalar Network900.node780 	discovery_latency 	5418
scalar Network900.node780 	number_of_desired_resources 	20
scalar Network900.node780 	query_homogenity_rate 	33.333333333333
scalar Network900.node780 	qrecord_time 	10186
scalar Network900.node780 	discovery_resolution_rate 	16.666666666667
scalar Network900.node890 	rate_of_requesters 	1
scalar Network900.node890 	number_of_resources 	49500
scalar Network900.node890 	time_period 	1
scalar Network900.node890 	number_of_messages 	2
scalar Network900.node890 	discovery_latency 	5442
scalar Network900.node890 	number_of_desired_resources 	20
scalar Network900.node890 	query_homogenity_rate 	33.333333333333
scalar Network900.node890 	qrecord_time 	10192
scalar Network900.node890 	discovery_resolution_rate 	0
scalar Network900.node60 	rate_of_requesters 	1
scalar Network900.node60 	number_of_resources 	49500
scalar Network900.node60 	time_period 	1
scalar Network900.node60 	number_of_messages 	2
scalar Network900.node60 	discovery_latency 	5502
scalar Network900.node60 	number_of_desired_resources 	20
scalar Network900.node60 	query_homogenity_rate 	33.333333333333
scalar Network900.node60 	qrecord_time 	10192
scalar Network900.node60 	discovery_resolution_rate 	0
scalar Network900.node540 	rate_of_requesters 	1
scalar Network900.node540 	number_of_resources 	49500
scalar Network900.node540 	time_period 	1
scalar Network900.node540 	number_of_messages 	2
scalar Network900.node540 	discovery_latency 	5442
scalar Network900.node540 	number_of_desired_resources 	20
scalar Network900.node540 	query_homogenity_rate 	33.333333333333
scalar Network900.node540 	qrecord_time 	10192
scalar Network900.node540 	discovery_resolution_rate 	0
scalar Network900.node140 	rate_of_requesters 	1
scalar Network900.node140 	number_of_resources 	49500
scalar Network900.node140 	time_period 	1
scalar Network900.node140 	number_of_messages 	2
scalar Network900.node140 	discovery_latency 	5478
scalar Network900.node140 	number_of_desired_resources 	20
scalar Network900.node140 	query_homogenity_rate 	33.333333333333
scalar Network900.node140 	qrecord_time 	10204
scalar Network900.node140 	discovery_resolution_rate 	0
scalar Network900.node160 	rate_of_requesters 	1
scalar Network900.node160 	number_of_resources 	49500
scalar Network900.node160 	time_period 	1
scalar Network900.node160 	number_of_messages 	2
scalar Network900.node160 	discovery_latency 	5430
scalar Network900.node160 	number_of_desired_resources 	20
scalar Network900.node160 	query_homogenity_rate 	33.333333333333
scalar Network900.node160 	qrecord_time 	10210
scalar Network900.node160 	discovery_resolution_rate 	0
scalar Network900.node560 	rate_of_requesters 	1
scalar Network900.node560 	number_of_resources 	49500
scalar Network900.node560 	time_period 	1
scalar Network900.node560 	number_of_messages 	2
scalar Network900.node560 	discovery_latency 	5406
scalar Network900.node560 	number_of_desired_resources 	20
scalar Network900.node560 	query_homogenity_rate 	33.333333333333
scalar Network900.node560 	qrecord_time 	10210
scalar Network900.node560 	discovery_resolution_rate 	0
scalar Network900.node860 	rate_of_requesters 	1
scalar Network900.node860 	number_of_resources 	49500
scalar Network900.node860 	time_period 	1
scalar Network900.node860 	number_of_messages 	5
scalar Network900.node860 	discovery_latency 	5478
scalar Network900.node860 	number_of_desired_resources 	20
scalar Network900.node860 	query_homogenity_rate 	33.333333333333
scalar Network900.node860 	qrecord_time 	10210
scalar Network900.node860 	discovery_resolution_rate 	33.333333333333
scalar Network900.node770 	rate_of_requesters 	1
scalar Network900.node770 	number_of_resources 	49500
scalar Network900.node770 	time_period 	1
scalar Network900.node770 	number_of_messages 	2
scalar Network900.node770 	discovery_latency 	5442
scalar Network900.node770 	number_of_desired_resources 	20
scalar Network900.node770 	query_homogenity_rate 	33.333333333333
scalar Network900.node770 	qrecord_time 	10216
scalar Network900.node770 	discovery_resolution_rate 	0
scalar Network900.node110 	rate_of_requesters 	1
scalar Network900.node110 	number_of_resources 	49500
scalar Network900.node110 	time_period 	1
scalar Network900.node110 	number_of_messages 	2
scalar Network900.node110 	discovery_latency 	5490
scalar Network900.node110 	number_of_desired_resources 	20
scalar Network900.node110 	query_homogenity_rate 	33.333333333333
scalar Network900.node110 	qrecord_time 	10222
scalar Network900.node110 	discovery_resolution_rate 	0
scalar Network900.node710 	rate_of_requesters 	1
scalar Network900.node710 	number_of_resources 	49500
scalar Network900.node710 	time_period 	1
scalar Network900.node710 	number_of_messages 	233
scalar Network900.node710 	discovery_latency 	5478
scalar Network900.node710 	number_of_desired_resources 	20
scalar Network900.node710 	query_homogenity_rate 	33.333333333333
scalar Network900.node710 	qrecord_time 	10228
scalar Network900.node710 	discovery_resolution_rate 	16.666666666667
scalar Network900.node280 	rate_of_requesters 	1
scalar Network900.node280 	number_of_resources 	49500
scalar Network900.node280 	time_period 	1
scalar Network900.node280 	number_of_messages 	7
scalar Network900.node280 	discovery_latency 	5466
scalar Network900.node280 	number_of_desired_resources 	20
scalar Network900.node280 	query_homogenity_rate 	33.333333333333
scalar Network900.node280 	qrecord_time 	10240
scalar Network900.node280 	discovery_resolution_rate 	33.333333333333
scalar Network900.node800 	rate_of_requesters 	1
scalar Network900.node800 	number_of_resources 	49500
scalar Network900.node800 	time_period 	1
scalar Network900.node800 	number_of_messages 	11
scalar Network900.node800 	discovery_latency 	5430
scalar Network900.node800 	number_of_desired_resources 	20
scalar Network900.node800 	query_homogenity_rate 	33.333333333333
scalar Network900.node800 	qrecord_time 	10240
scalar Network900.node800 	discovery_resolution_rate 	33.333333333333
scalar Network900.node570 	rate_of_requesters 	1
scalar Network900.node570 	number_of_resources 	49500
scalar Network900.node570 	time_period 	1
scalar Network900.node570 	number_of_messages 	2
scalar Network900.node570 	discovery_latency 	5478
scalar Network900.node570 	number_of_desired_resources 	20
scalar Network900.node570 	query_homogenity_rate 	33.333333333333
scalar Network900.node570 	qrecord_time 	10240
scalar Network900.node570 	discovery_resolution_rate 	0
scalar Network900.node80 	rate_of_requesters 	1
scalar Network900.node80 	number_of_resources 	49500
scalar Network900.node80 	time_period 	2
scalar Network900.node80 	number_of_messages 	2
scalar Network900.node80 	discovery_latency 	5286
scalar Network900.node80 	number_of_desired_resources 	20
scalar Network900.node80 	query_homogenity_rate 	33.333333333333
scalar Network900.node80 	qrecord_time 	10241.198198373
scalar Network900.node80 	discovery_resolution_rate 	0
scalar Network900.node720 	rate_of_requesters 	1
scalar Network900.node720 	number_of_resources 	49500
scalar Network900.node720 	time_period 	1
scalar Network900.node720 	number_of_messages 	233
scalar Network900.node720 	discovery_latency 	5442
scalar Network900.node720 	number_of_desired_resources 	20
scalar Network900.node720 	query_homogenity_rate 	33.333333333333
scalar Network900.node720 	qrecord_time 	10252
scalar Network900.node720 	discovery_resolution_rate 	16.666666666667
scalar Network900.node250 	rate_of_requesters 	1
scalar Network900.node250 	number_of_resources 	49500
scalar Network900.node250 	time_period 	1
scalar Network900.node250 	number_of_messages 	2
scalar Network900.node250 	discovery_latency 	5538
scalar Network900.node250 	number_of_desired_resources 	20
scalar Network900.node250 	query_homogenity_rate 	33.333333333333
scalar Network900.node250 	qrecord_time 	10252
scalar Network900.node250 	discovery_resolution_rate 	0
scalar Network900.node240 	rate_of_requesters 	1
scalar Network900.node240 	number_of_resources 	49500
scalar Network900.node240 	time_period 	1
scalar Network900.node240 	number_of_messages 	11
scalar Network900.node240 	discovery_latency 	5550
scalar Network900.node240 	number_of_desired_resources 	20
scalar Network900.node240 	query_homogenity_rate 	33.333333333333
scalar Network900.node240 	qrecord_time 	10258
scalar Network900.node240 	discovery_resolution_rate 	66.666666666667
scalar Network900.node130 	rate_of_requesters 	1
scalar Network900.node130 	number_of_resources 	49500
scalar Network900.node130 	time_period 	1
scalar Network900.node130 	number_of_messages 	2
scalar Network900.node130 	discovery_latency 	5478
scalar Network900.node130 	number_of_desired_resources 	20
scalar Network900.node130 	query_homogenity_rate 	33.333333333333
scalar Network900.node130 	qrecord_time 	10258
scalar Network900.node130 	discovery_resolution_rate 	0
scalar Network900.node480 	rate_of_requesters 	1
scalar Network900.node480 	number_of_resources 	49500
scalar Network900.node480 	time_period 	1
scalar Network900.node480 	number_of_messages 	2
scalar Network900.node480 	discovery_latency 	5502
scalar Network900.node480 	number_of_desired_resources 	20
scalar Network900.node480 	query_homogenity_rate 	33.333333333333
scalar Network900.node480 	qrecord_time 	10258
scalar Network900.node480 	discovery_resolution_rate 	0
scalar Network900.node190 	rate_of_requesters 	1
scalar Network900.node190 	number_of_resources 	49500
scalar Network900.node190 	time_period 	1
scalar Network900.node190 	number_of_messages 	2
scalar Network900.node190 	discovery_latency 	5514
scalar Network900.node190 	number_of_desired_resources 	20
scalar Network900.node190 	query_homogenity_rate 	33.333333333333
scalar Network900.node190 	qrecord_time 	10270
scalar Network900.node190 	discovery_resolution_rate 	0
scalar Network900.node40 	rate_of_requesters 	1
scalar Network900.node40 	number_of_resources 	49500
scalar Network900.node40 	time_period 	1
scalar Network900.node40 	number_of_messages 	2
scalar Network900.node40 	discovery_latency 	5490
scalar Network900.node40 	number_of_desired_resources 	20
scalar Network900.node40 	query_homogenity_rate 	33.333333333333
scalar Network900.node40 	qrecord_time 	10276
scalar Network900.node40 	discovery_resolution_rate 	0
scalar Network900.node450 	rate_of_requesters 	1
scalar Network900.node450 	number_of_resources 	49500
scalar Network900.node450 	time_period 	1
scalar Network900.node450 	number_of_messages 	2
scalar Network900.node450 	discovery_latency 	5454
scalar Network900.node450 	number_of_desired_resources 	20
scalar Network900.node450 	query_homogenity_rate 	33.333333333333
scalar Network900.node450 	qrecord_time 	10276
scalar Network900.node450 	discovery_resolution_rate 	0
scalar Network900.node270 	rate_of_requesters 	1
scalar Network900.node270 	number_of_resources 	49500
scalar Network900.node270 	time_period 	1
scalar Network900.node270 	number_of_messages 	2
scalar Network900.node270 	discovery_latency 	5550
scalar Network900.node270 	number_of_desired_resources 	20
scalar Network900.node270 	query_homogenity_rate 	33.333333333333
scalar Network900.node270 	qrecord_time 	10276
scalar Network900.node270 	discovery_resolution_rate 	0
scalar Network900.node630 	rate_of_requesters 	1
scalar Network900.node630 	number_of_resources 	49500
scalar Network900.node630 	time_period 	1
scalar Network900.node630 	number_of_messages 	4
scalar Network900.node630 	discovery_latency 	5526
scalar Network900.node630 	number_of_desired_resources 	20
scalar Network900.node630 	query_homogenity_rate 	33.333333333333
scalar Network900.node630 	qrecord_time 	10276
scalar Network900.node630 	discovery_resolution_rate 	33.333333333333
scalar Network900.node680 	rate_of_requesters 	1
scalar Network900.node680 	number_of_resources 	49500
scalar Network900.node680 	time_period 	1
scalar Network900.node680 	number_of_messages 	9
scalar Network900.node680 	discovery_latency 	5598
scalar Network900.node680 	number_of_desired_resources 	20
scalar Network900.node680 	query_homogenity_rate 	33.333333333333
scalar Network900.node680 	qrecord_time 	10282
scalar Network900.node680 	discovery_resolution_rate 	33.333333333333
scalar Network900.node200 	rate_of_requesters 	1
scalar Network900.node200 	number_of_resources 	49500
scalar Network900.node200 	time_period 	1
scalar Network900.node200 	number_of_messages 	2
scalar Network900.node200 	discovery_latency 	5562
scalar Network900.node200 	number_of_desired_resources 	20
scalar Network900.node200 	query_homogenity_rate 	33.333333333333
scalar Network900.node200 	qrecord_time 	10288
scalar Network900.node200 	discovery_resolution_rate 	0
scalar Network900.node830 	rate_of_requesters 	1
scalar Network900.node830 	number_of_resources 	49500
scalar Network900.node830 	time_period 	1
scalar Network900.node830 	number_of_messages 	2
scalar Network900.node830 	discovery_latency 	5538
scalar Network900.node830 	number_of_desired_resources 	20
scalar Network900.node830 	query_homogenity_rate 	33.333333333333
scalar Network900.node830 	qrecord_time 	10294
scalar Network900.node830 	discovery_resolution_rate 	0
scalar Network900.node220 	rate_of_requesters 	1
scalar Network900.node220 	number_of_resources 	49500
scalar Network900.node220 	time_period 	1
scalar Network900.node220 	number_of_messages 	16
scalar Network900.node220 	discovery_latency 	5526
scalar Network900.node220 	number_of_desired_resources 	20
scalar Network900.node220 	query_homogenity_rate 	33.333333333333
scalar Network900.node220 	qrecord_time 	10294
scalar Network900.node220 	discovery_resolution_rate 	33.333333333333
scalar Network900.node560 	rate_of_requesters 	1
scalar Network900.node560 	number_of_resources 	49500
scalar Network900.node560 	time_period 	2
scalar Network900.node560 	number_of_messages 	2
scalar Network900.node560 	discovery_latency 	5346
scalar Network900.node560 	number_of_desired_resources 	20
scalar Network900.node560 	query_homogenity_rate 	33.333333333333
scalar Network900.node560 	qrecord_time 	10308.412221793
scalar Network900.node560 	discovery_resolution_rate 	0
scalar Network900.node640 	rate_of_requesters 	1
scalar Network900.node640 	number_of_resources 	49500
scalar Network900.node640 	time_period 	1
scalar Network900.node640 	number_of_messages 	7
scalar Network900.node640 	discovery_latency 	5586
scalar Network900.node640 	number_of_desired_resources 	20
scalar Network900.node640 	query_homogenity_rate 	33.333333333333
scalar Network900.node640 	qrecord_time 	10312
scalar Network900.node640 	discovery_resolution_rate 	33.333333333333
scalar Network900.node310 	rate_of_requesters 	1
scalar Network900.node310 	number_of_resources 	49500
scalar Network900.node310 	time_period 	1
scalar Network900.node310 	number_of_messages 	2
scalar Network900.node310 	discovery_latency 	5622
scalar Network900.node310 	number_of_desired_resources 	20
scalar Network900.node310 	query_homogenity_rate 	33.333333333333
scalar Network900.node310 	qrecord_time 	10312
scalar Network900.node310 	discovery_resolution_rate 	0
scalar Network900.node740 	rate_of_requesters 	1
scalar Network900.node740 	number_of_resources 	49500
scalar Network900.node740 	time_period 	1
scalar Network900.node740 	number_of_messages 	2
scalar Network900.node740 	discovery_latency 	5514
scalar Network900.node740 	number_of_desired_resources 	20
scalar Network900.node740 	query_homogenity_rate 	33.333333333333
scalar Network900.node740 	qrecord_time 	10318
scalar Network900.node740 	discovery_resolution_rate 	0
scalar Network900.node590 	rate_of_requesters 	1
scalar Network900.node590 	number_of_resources 	49500
scalar Network900.node590 	time_period 	1
scalar Network900.node590 	number_of_messages 	0
scalar Network900.node590 	discovery_latency 	5622
scalar Network900.node590 	number_of_desired_resources 	20
scalar Network900.node590 	query_homogenity_rate 	33.333333333333
scalar Network900.node590 	qrecord_time 	10318
scalar Network900.node590 	discovery_resolution_rate 	0
scalar Network900.node610 	rate_of_requesters 	1
scalar Network900.node610 	number_of_resources 	49500
scalar Network900.node610 	time_period 	1
scalar Network900.node610 	number_of_messages 	2
scalar Network900.node610 	discovery_latency 	5562
scalar Network900.node610 	number_of_desired_resources 	20
scalar Network900.node610 	query_homogenity_rate 	33.333333333333
scalar Network900.node610 	qrecord_time 	10330
scalar Network900.node610 	discovery_resolution_rate 	0
scalar Network900.node550 	rate_of_requesters 	1
scalar Network900.node550 	number_of_resources 	49500
scalar Network900.node550 	time_period 	2
scalar Network900.node550 	number_of_messages 	2
scalar Network900.node550 	discovery_latency 	5166
scalar Network900.node550 	number_of_desired_resources 	20
scalar Network900.node550 	query_homogenity_rate 	33.333333333333
scalar Network900.node550 	qrecord_time 	10332.908499214
scalar Network900.node550 	discovery_resolution_rate 	0
scalar Network900.node370 	rate_of_requesters 	1
scalar Network900.node370 	number_of_resources 	49500
scalar Network900.node370 	time_period 	2
scalar Network900.node370 	number_of_messages 	2
scalar Network900.node370 	discovery_latency 	5454
scalar Network900.node370 	number_of_desired_resources 	20
scalar Network900.node370 	query_homogenity_rate 	33.333333333333
scalar Network900.node370 	qrecord_time 	10340.686699024
scalar Network900.node370 	discovery_resolution_rate 	0
scalar Network900.node470 	rate_of_requesters 	1
scalar Network900.node470 	number_of_resources 	49500
scalar Network900.node470 	time_period 	1
scalar Network900.node470 	number_of_messages 	2
scalar Network900.node470 	discovery_latency 	5550
scalar Network900.node470 	number_of_desired_resources 	20
scalar Network900.node470 	query_homogenity_rate 	33.333333333333
scalar Network900.node470 	qrecord_time 	10342
scalar Network900.node470 	discovery_resolution_rate 	0
scalar Network900.node520 	rate_of_requesters 	1
scalar Network900.node520 	number_of_resources 	49500
scalar Network900.node520 	time_period 	1
scalar Network900.node520 	number_of_messages 	2
scalar Network900.node520 	discovery_latency 	5598
scalar Network900.node520 	number_of_desired_resources 	20
scalar Network900.node520 	query_homogenity_rate 	33.333333333333
scalar Network900.node520 	qrecord_time 	10348
scalar Network900.node520 	discovery_resolution_rate 	0
scalar Network900.node650 	rate_of_requesters 	1
scalar Network900.node650 	number_of_resources 	49500
scalar Network900.node650 	time_period 	1
scalar Network900.node650 	number_of_messages 	2
scalar Network900.node650 	discovery_latency 	5490
scalar Network900.node650 	number_of_desired_resources 	20
scalar Network900.node650 	query_homogenity_rate 	33.333333333333
scalar Network900.node650 	qrecord_time 	10348
scalar Network900.node650 	discovery_resolution_rate 	0
scalar Network900.node390 	rate_of_requesters 	1
scalar Network900.node390 	number_of_resources 	49500
scalar Network900.node390 	time_period 	2
scalar Network900.node390 	number_of_messages 	2
scalar Network900.node390 	discovery_latency 	5574
scalar Network900.node390 	number_of_desired_resources 	20
scalar Network900.node390 	query_homogenity_rate 	33.333333333333
scalar Network900.node390 	qrecord_time 	10349.542163659
scalar Network900.node390 	discovery_resolution_rate 	0
scalar Network900.node780 	rate_of_requesters 	1
scalar Network900.node780 	number_of_resources 	49500
scalar Network900.node780 	time_period 	2
scalar Network900.node780 	number_of_messages 	0
scalar Network900.node780 	discovery_latency 	5442
scalar Network900.node780 	number_of_desired_resources 	20
scalar Network900.node780 	query_homogenity_rate 	33.333333333333
scalar Network900.node780 	qrecord_time 	10352.54252475
scalar Network900.node780 	discovery_resolution_rate 	0
scalar Network900.node440 	rate_of_requesters 	1
scalar Network900.node440 	number_of_resources 	49500
scalar Network900.node440 	time_period 	1
scalar Network900.node440 	number_of_messages 	233
scalar Network900.node440 	discovery_latency 	5586
scalar Network900.node440 	number_of_desired_resources 	20
scalar Network900.node440 	query_homogenity_rate 	33.333333333333
scalar Network900.node440 	qrecord_time 	10354
scalar Network900.node440 	discovery_resolution_rate 	16.666666666667
scalar Network900.node410 	rate_of_requesters 	1
scalar Network900.node410 	number_of_resources 	49500
scalar Network900.node410 	time_period 	1
scalar Network900.node410 	number_of_messages 	2
scalar Network900.node410 	discovery_latency 	5610
scalar Network900.node410 	number_of_desired_resources 	20
scalar Network900.node410 	query_homogenity_rate 	33.333333333333
scalar Network900.node410 	qrecord_time 	10360
scalar Network900.node410 	discovery_resolution_rate 	0
scalar Network900.node190 	rate_of_requesters 	1
scalar Network900.node190 	number_of_resources 	49500
scalar Network900.node190 	time_period 	2
scalar Network900.node190 	number_of_messages 	2
scalar Network900.node190 	discovery_latency 	5358
scalar Network900.node190 	number_of_desired_resources 	20
scalar Network900.node190 	query_homogenity_rate 	33.333333333333
scalar Network900.node190 	qrecord_time 	10387.431204245
scalar Network900.node190 	discovery_resolution_rate 	0
scalar Network900.node510 	rate_of_requesters 	1
scalar Network900.node510 	number_of_resources 	49500
scalar Network900.node510 	time_period 	1
scalar Network900.node510 	number_of_messages 	209
scalar Network900.node510 	discovery_latency 	5658
scalar Network900.node510 	number_of_desired_resources 	20
scalar Network900.node510 	query_homogenity_rate 	33.333333333333
scalar Network900.node510 	qrecord_time 	10390
scalar Network900.node510 	discovery_resolution_rate 	16.666666666667
scalar Network900.node750 	rate_of_requesters 	1
scalar Network900.node750 	number_of_resources 	49500
scalar Network900.node750 	time_period 	1
scalar Network900.node750 	number_of_messages 	2
scalar Network900.node750 	discovery_latency 	5682
scalar Network900.node750 	number_of_desired_resources 	20
scalar Network900.node750 	query_homogenity_rate 	33.333333333333
scalar Network900.node750 	qrecord_time 	10390
scalar Network900.node750 	discovery_resolution_rate 	0
scalar Network900.node80 	rate_of_requesters 	1
scalar Network900.node80 	number_of_resources 	49500
scalar Network900.node80 	time_period 	1
scalar Network900.node80 	number_of_messages 	2
scalar Network900.node80 	discovery_latency 	5562
scalar Network900.node80 	number_of_desired_resources 	20
scalar Network900.node80 	query_homogenity_rate 	33.333333333333
scalar Network900.node80 	qrecord_time 	10396
scalar Network900.node80 	discovery_resolution_rate 	0
scalar Network900.node870 	rate_of_requesters 	1
scalar Network900.node870 	number_of_resources 	49500
scalar Network900.node870 	time_period 	2
scalar Network900.node870 	number_of_messages 	2
scalar Network900.node870 	discovery_latency 	5586
scalar Network900.node870 	number_of_desired_resources 	20
scalar Network900.node870 	query_homogenity_rate 	33.333333333333
scalar Network900.node870 	qrecord_time 	10416.673125868
scalar Network900.node870 	discovery_resolution_rate 	0
scalar Network900.node420 	rate_of_requesters 	1
scalar Network900.node420 	number_of_resources 	49500
scalar Network900.node420 	time_period 	1
scalar Network900.node420 	number_of_messages 	231
scalar Network900.node420 	discovery_latency 	5682
scalar Network900.node420 	number_of_desired_resources 	20
scalar Network900.node420 	query_homogenity_rate 	33.333333333333
scalar Network900.node420 	qrecord_time 	10426
scalar Network900.node420 	discovery_resolution_rate 	16.666666666667
scalar Network900.node30 	rate_of_requesters 	1
scalar Network900.node30 	number_of_resources 	49500
scalar Network900.node30 	time_period 	1
scalar Network900.node30 	number_of_messages 	15
scalar Network900.node30 	discovery_latency 	5706
scalar Network900.node30 	number_of_desired_resources 	20
scalar Network900.node30 	query_homogenity_rate 	33.333333333333
scalar Network900.node30 	qrecord_time 	10444
scalar Network900.node30 	discovery_resolution_rate 	66.666666666667
scalar Network900.node810 	rate_of_requesters 	1
scalar Network900.node810 	number_of_resources 	49500
scalar Network900.node810 	time_period 	1
scalar Network900.node810 	number_of_messages 	2
scalar Network900.node810 	discovery_latency 	5694
scalar Network900.node810 	number_of_desired_resources 	20
scalar Network900.node810 	query_homogenity_rate 	33.333333333333
scalar Network900.node810 	qrecord_time 	10450
scalar Network900.node810 	discovery_resolution_rate 	0
scalar Network900.node410 	rate_of_requesters 	1
scalar Network900.node410 	number_of_resources 	49500
scalar Network900.node410 	time_period 	2
scalar Network900.node410 	number_of_messages 	2
scalar Network900.node410 	discovery_latency 	5610
scalar Network900.node410 	number_of_desired_resources 	20
scalar Network900.node410 	query_homogenity_rate 	33.333333333333
scalar Network900.node410 	qrecord_time 	10465.008967922
scalar Network900.node410 	discovery_resolution_rate 	0
scalar Network900.node210 	rate_of_requesters 	1
scalar Network900.node210 	number_of_resources 	49500
scalar Network900.node210 	time_period 	1
scalar Network900.node210 	number_of_messages 	2
scalar Network900.node210 	discovery_latency 	5670
scalar Network900.node210 	number_of_desired_resources 	20
scalar Network900.node210 	query_homogenity_rate 	33.333333333333
scalar Network900.node210 	qrecord_time 	10528
scalar Network900.node210 	discovery_resolution_rate 	0
scalar Network900.node430 	rate_of_requesters 	1
scalar Network900.node430 	number_of_resources 	49500
scalar Network900.node430 	time_period 	2
scalar Network900.node430 	number_of_messages 	2
scalar Network900.node430 	discovery_latency 	5478
scalar Network900.node430 	number_of_desired_resources 	20
scalar Network900.node430 	query_homogenity_rate 	33.333333333333
scalar Network900.node430 	qrecord_time 	10660.050310656
scalar Network900.node430 	discovery_resolution_rate 	0
scalar Network900.node500 	rate_of_requesters 	1
scalar Network900.node500 	number_of_resources 	49500
scalar Network900.node500 	time_period 	2
scalar Network900.node500 	number_of_messages 	2
scalar Network900.node500 	discovery_latency 	5502
scalar Network900.node500 	number_of_desired_resources 	20
scalar Network900.node500 	query_homogenity_rate 	33.333333333333
scalar Network900.node500 	qrecord_time 	10671.853373695
scalar Network900.node500 	discovery_resolution_rate 	0
scalar Network900.node140 	rate_of_requesters 	1
scalar Network900.node140 	number_of_resources 	49500
scalar Network900.node140 	time_period 	2
scalar Network900.node140 	number_of_messages 	2
scalar Network900.node140 	discovery_latency 	5574
scalar Network900.node140 	number_of_desired_resources 	20
scalar Network900.node140 	query_homogenity_rate 	33.333333333333
scalar Network900.node140 	qrecord_time 	10764.302977829
scalar Network900.node140 	discovery_resolution_rate 	0
scalar Network900.node290 	rate_of_requesters 	1
scalar Network900.node290 	number_of_resources 	49500
scalar Network900.node290 	time_period 	2
scalar Network900.node290 	number_of_messages 	2
scalar Network900.node290 	discovery_latency 	5466
scalar Network900.node290 	number_of_desired_resources 	20
scalar Network900.node290 	query_homogenity_rate 	33.333333333333
scalar Network900.node290 	qrecord_time 	10764.733715138
scalar Network900.node290 	discovery_resolution_rate 	0
scalar Network900.node0 	rate_of_requesters 	1
scalar Network900.node0 	number_of_resources 	49500
scalar Network900.node0 	time_period 	2
scalar Network900.node0 	number_of_messages 	0
scalar Network900.node0 	discovery_latency 	5454
scalar Network900.node0 	number_of_desired_resources 	20
scalar Network900.node0 	query_homogenity_rate 	33.333333333333
scalar Network900.node0 	qrecord_time 	10800.832827764
scalar Network900.node0 	discovery_resolution_rate 	0
scalar Network900.node290 	rate_of_requesters 	1
scalar Network900.node290 	number_of_resources 	49500
scalar Network900.node290 	time_period 	3
scalar Network900.node290 	number_of_messages 	2
scalar Network900.node290 	discovery_latency 	5478
scalar Network900.node290 	number_of_desired_resources 	20
scalar Network900.node290 	query_homogenity_rate 	33.333333333333
scalar Network900.node290 	qrecord_time 	10809.383257017
scalar Network900.node290 	discovery_resolution_rate 	0
scalar Network900.node760 	rate_of_requesters 	1
scalar Network900.node760 	number_of_resources 	49500
scalar Network900.node760 	time_period 	2
scalar Network900.node760 	number_of_messages 	2
scalar Network900.node760 	discovery_latency 	5370
scalar Network900.node760 	number_of_desired_resources 	20
scalar Network900.node760 	query_homogenity_rate 	33.333333333333
scalar Network900.node760 	qrecord_time 	10857.6269661
scalar Network900.node760 	discovery_resolution_rate 	0
scalar Network900.node190 	rate_of_requesters 	1
scalar Network900.node190 	number_of_resources 	49500
scalar Network900.node190 	time_period 	3
scalar Network900.node190 	number_of_messages 	2
scalar Network900.node190 	discovery_latency 	5610
scalar Network900.node190 	number_of_desired_resources 	20
scalar Network900.node190 	query_homogenity_rate 	33.333333333333
scalar Network900.node190 	qrecord_time 	10880.757540256
scalar Network900.node190 	discovery_resolution_rate 	0
scalar Network900.node160 	rate_of_requesters 	1
scalar Network900.node160 	number_of_resources 	49500
scalar Network900.node160 	time_period 	2
scalar Network900.node160 	number_of_messages 	2
scalar Network900.node160 	discovery_latency 	5514
scalar Network900.node160 	number_of_desired_resources 	20
scalar Network900.node160 	query_homogenity_rate 	33.333333333333
scalar Network900.node160 	qrecord_time 	10896.752410531
scalar Network900.node160 	discovery_resolution_rate 	0
scalar Network900.node60 	rate_of_requesters 	1
scalar Network900.node60 	number_of_resources 	49500
scalar Network900.node60 	time_period 	4
scalar Network900.node60 	number_of_messages 	2
scalar Network900.node60 	discovery_latency 	5346
scalar Network900.node60 	number_of_desired_resources 	20
scalar Network900.node60 	query_homogenity_rate 	33.333333333333
scalar Network900.node60 	qrecord_time 	10900.101733431
scalar Network900.node60 	discovery_resolution_rate 	0
scalar Network900.node670 	rate_of_requesters 	1
scalar Network900.node670 	number_of_resources 	49500
scalar Network900.node670 	time_period 	2
scalar Network900.node670 	number_of_messages 	2
scalar Network900.node670 	discovery_latency 	5634
scalar Network900.node670 	number_of_desired_resources 	20
scalar Network900.node670 	query_homogenity_rate 	33.333333333333
scalar Network900.node670 	qrecord_time 	10945.800355767
scalar Network900.node670 	discovery_resolution_rate 	0
scalar Network900.node580 	rate_of_requesters 	1
scalar Network900.node580 	number_of_resources 	49500
scalar Network900.node580 	time_period 	2
scalar Network900.node580 	number_of_messages 	2
scalar Network900.node580 	discovery_latency 	5634
scalar Network900.node580 	number_of_desired_resources 	20
scalar Network900.node580 	query_homogenity_rate 	33.333333333333
scalar Network900.node580 	qrecord_time 	10978.958773337
scalar Network900.node580 	discovery_resolution_rate 	0
scalar Network900.node860 	rate_of_requesters 	1
scalar Network900.node860 	number_of_resources 	49500
scalar Network900.node860 	time_period 	2
scalar Network900.node860 	number_of_messages 	2
scalar Network900.node860 	discovery_latency 	5502
scalar Network900.node860 	number_of_desired_resources 	20
scalar Network900.node860 	query_homogenity_rate 	33.333333333333
scalar Network900.node860 	qrecord_time 	10986.373031241
scalar Network900.node860 	discovery_resolution_rate 	0
scalar Network900.node130 	rate_of_requesters 	1
scalar Network900.node130 	number_of_resources 	49500
scalar Network900.node130 	time_period 	2
scalar Network900.node130 	number_of_messages 	2
scalar Network900.node130 	discovery_latency 	5346
scalar Network900.node130 	number_of_desired_resources 	20
scalar Network900.node130 	query_homogenity_rate 	33.333333333333
scalar Network900.node130 	qrecord_time 	11003.060528596
scalar Network900.node130 	discovery_resolution_rate 	0
scalar Network900.node450 	rate_of_requesters 	1
scalar Network900.node450 	number_of_resources 	49500
scalar Network900.node450 	time_period 	2
scalar Network900.node450 	number_of_messages 	2
scalar Network900.node450 	discovery_latency 	5562
scalar Network900.node450 	number_of_desired_resources 	20
scalar Network900.node450 	query_homogenity_rate 	33.333333333333
scalar Network900.node450 	qrecord_time 	11116.181049381
scalar Network900.node450 	discovery_resolution_rate 	0
scalar Network900.node430 	rate_of_requesters 	1
scalar Network900.node430 	number_of_resources 	49500
scalar Network900.node430 	time_period 	3
scalar Network900.node430 	number_of_messages 	2
scalar Network900.node430 	discovery_latency 	5634
scalar Network900.node430 	number_of_desired_resources 	20
scalar Network900.node430 	query_homogenity_rate 	33.333333333333
scalar Network900.node430 	qrecord_time 	11145.364441603
scalar Network900.node430 	discovery_resolution_rate 	0
scalar Network900.node60 	rate_of_requesters 	1
scalar Network900.node60 	number_of_resources 	49500
scalar Network900.node60 	time_period 	3
scalar Network900.node60 	number_of_messages 	2
scalar Network900.node60 	discovery_latency 	5610
scalar Network900.node60 	number_of_desired_resources 	20
scalar Network900.node60 	query_homogenity_rate 	33.333333333333
scalar Network900.node60 	qrecord_time 	11157.783681262
scalar Network900.node60 	discovery_resolution_rate 	0
scalar Network900.node610 	rate_of_requesters 	1
scalar Network900.node610 	number_of_resources 	49500
scalar Network900.node610 	time_period 	2
scalar Network900.node610 	number_of_messages 	2
scalar Network900.node610 	discovery_latency 	5802
scalar Network900.node610 	number_of_desired_resources 	20
scalar Network900.node610 	query_homogenity_rate 	33.333333333333
scalar Network900.node610 	qrecord_time 	11160.871202801
scalar Network900.node610 	discovery_resolution_rate 	0
scalar Network900.node10 	rate_of_requesters 	1
scalar Network900.node10 	number_of_resources 	49500
scalar Network900.node10 	time_period 	2
scalar Network900.node10 	number_of_messages 	2
scalar Network900.node10 	discovery_latency 	5622
scalar Network900.node10 	number_of_desired_resources 	20
scalar Network900.node10 	query_homogenity_rate 	33.333333333333
scalar Network900.node10 	qrecord_time 	11163.865635302
scalar Network900.node10 	discovery_resolution_rate 	0
scalar Network900.node50 	rate_of_requesters 	1
scalar Network900.node50 	number_of_resources 	49500
scalar Network900.node50 	time_period 	2
scalar Network900.node50 	number_of_messages 	2
scalar Network900.node50 	discovery_latency 	5346
scalar Network900.node50 	number_of_desired_resources 	20
scalar Network900.node50 	query_homogenity_rate 	33.333333333333
scalar Network900.node50 	qrecord_time 	11220.251373515
scalar Network900.node50 	discovery_resolution_rate 	0
scalar Network900.node660 	rate_of_requesters 	1
scalar Network900.node660 	number_of_resources 	49500
scalar Network900.node660 	time_period 	2
scalar Network900.node660 	number_of_messages 	2
scalar Network900.node660 	discovery_latency 	5430
scalar Network900.node660 	number_of_desired_resources 	20
scalar Network900.node660 	query_homogenity_rate 	33.333333333333
scalar Network900.node660 	qrecord_time 	11220.322899517
scalar Network900.node660 	discovery_resolution_rate 	0
scalar Network900.node790 	rate_of_requesters 	1
scalar Network900.node790 	number_of_resources 	49500
scalar Network900.node790 	time_period 	2
scalar Network900.node790 	number_of_messages 	2
scalar Network900.node790 	discovery_latency 	5514
scalar Network900.node790 	number_of_desired_resources 	20
scalar Network900.node790 	query_homogenity_rate 	33.333333333333
scalar Network900.node790 	qrecord_time 	11221.828858122
scalar Network900.node790 	discovery_resolution_rate 	0
scalar Network900.node860 	rate_of_requesters 	1
scalar Network900.node860 	number_of_resources 	49500
scalar Network900.node860 	time_period 	3
scalar Network900.node860 	number_of_messages 	2
scalar Network900.node860 	discovery_latency 	5478
scalar Network900.node860 	number_of_desired_resources 	20
scalar Network900.node860 	query_homogenity_rate 	33.333333333333
scalar Network900.node860 	qrecord_time 	11277.569121066
scalar Network900.node860 	discovery_resolution_rate 	0
scalar Network900.node250 	rate_of_requesters 	1
scalar Network900.node250 	number_of_resources 	49500
scalar Network900.node250 	time_period 	2
scalar Network900.node250 	number_of_messages 	2
scalar Network900.node250 	discovery_latency 	5418
scalar Network900.node250 	number_of_desired_resources 	20
scalar Network900.node250 	query_homogenity_rate 	33.333333333333
scalar Network900.node250 	qrecord_time 	11342.790527291
scalar Network900.node250 	discovery_resolution_rate 	0
scalar Network900.node670 	rate_of_requesters 	1
scalar Network900.node670 	number_of_resources 	49500
scalar Network900.node670 	time_period 	3
scalar Network900.node670 	number_of_messages 	2
scalar Network900.node670 	discovery_latency 	5454
scalar Network900.node670 	number_of_desired_resources 	20
scalar Network900.node670 	query_homogenity_rate 	33.333333333333
scalar Network900.node670 	qrecord_time 	11360.450068146
scalar Network900.node670 	discovery_resolution_rate 	0
scalar Network900.node750 	rate_of_requesters 	1
scalar Network900.node750 	number_of_resources 	49500
scalar Network900.node750 	time_period 	2
scalar Network900.node750 	number_of_messages 	2
scalar Network900.node750 	discovery_latency 	5346
scalar Network900.node750 	number_of_desired_resources 	20
scalar Network900.node750 	query_homogenity_rate 	33.333333333333
scalar Network900.node750 	qrecord_time 	11373.183793531
scalar Network900.node750 	discovery_resolution_rate 	0
scalar Network900.node680 	rate_of_requesters 	1
scalar Network900.node680 	number_of_resources 	49500
scalar Network900.node680 	time_period 	2
scalar Network900.node680 	number_of_messages 	2
scalar Network900.node680 	discovery_latency 	5394
scalar Network900.node680 	number_of_desired_resources 	20
scalar Network900.node680 	query_homogenity_rate 	33.333333333333
scalar Network900.node680 	qrecord_time 	11374.094093889
scalar Network900.node680 	discovery_resolution_rate 	0
scalar Network900.node210 	rate_of_requesters 	1
scalar Network900.node210 	number_of_resources 	49500
scalar Network900.node210 	time_period 	2
scalar Network900.node210 	number_of_messages 	2
scalar Network900.node210 	discovery_latency 	5382
scalar Network900.node210 	number_of_desired_resources 	20
scalar Network900.node210 	query_homogenity_rate 	33.333333333333
scalar Network900.node210 	qrecord_time 	11384.089187278
scalar Network900.node210 	discovery_resolution_rate 	0
scalar Network900.node390 	rate_of_requesters 	1
scalar Network900.node390 	number_of_resources 	49500
scalar Network900.node390 	time_period 	3
scalar Network900.node390 	number_of_messages 	2
scalar Network900.node390 	discovery_latency 	5586
scalar Network900.node390 	number_of_desired_resources 	20
scalar Network900.node390 	query_homogenity_rate 	33.333333333333
scalar Network900.node390 	qrecord_time 	11413.92825357
scalar Network900.node390 	discovery_resolution_rate 	0
scalar Network900.node650 	rate_of_requesters 	1
scalar Network900.node650 	number_of_resources 	49500
scalar Network900.node650 	time_period 	2
scalar Network900.node650 	number_of_messages 	2
scalar Network900.node650 	discovery_latency 	5634
scalar Network900.node650 	number_of_desired_resources 	20
scalar Network900.node650 	query_homogenity_rate 	33.333333333333
scalar Network900.node650 	qrecord_time 	11428.193602273
scalar Network900.node650 	discovery_resolution_rate 	0
scalar Network900.node790 	rate_of_requesters 	1
scalar Network900.node790 	number_of_resources 	49500
scalar Network900.node790 	time_period 	3
scalar Network900.node790 	number_of_messages 	2
scalar Network900.node790 	discovery_latency 	5598
scalar Network900.node790 	number_of_desired_resources 	20
scalar Network900.node790 	query_homogenity_rate 	33.333333333333
scalar Network900.node790 	qrecord_time 	11448.333440746
scalar Network900.node790 	discovery_resolution_rate 	0
scalar Network900.node590 	rate_of_requesters 	1
scalar Network900.node590 	number_of_resources 	49500
scalar Network900.node590 	time_period 	2
scalar Network900.node590 	number_of_messages 	0
scalar Network900.node590 	discovery_latency 	5550
scalar Network900.node590 	number_of_desired_resources 	20
scalar Network900.node590 	query_homogenity_rate 	33.333333333333
scalar Network900.node590 	qrecord_time 	11502.441206197
scalar Network900.node590 	discovery_resolution_rate 	0
scalar Network900.node410 	rate_of_requesters 	1
scalar Network900.node410 	number_of_resources 	49500
scalar Network900.node410 	time_period 	3
scalar Network900.node410 	number_of_messages 	2
scalar Network900.node410 	discovery_latency 	5358
scalar Network900.node410 	number_of_desired_resources 	20
scalar Network900.node410 	query_homogenity_rate 	33.333333333333
scalar Network900.node410 	qrecord_time 	11534.173767267
scalar Network900.node410 	discovery_resolution_rate 	0
scalar Network900.node860 	rate_of_requesters 	1
scalar Network900.node860 	number_of_resources 	49500
scalar Network900.node860 	time_period 	4
scalar Network900.node860 	number_of_messages 	2
scalar Network900.node860 	discovery_latency 	5346
scalar Network900.node860 	number_of_desired_resources 	20
scalar Network900.node860 	query_homogenity_rate 	33.333333333333
scalar Network900.node860 	qrecord_time 	11549.194723712
scalar Network900.node860 	discovery_resolution_rate 	0
scalar Network900.node820 	rate_of_requesters 	1
scalar Network900.node820 	number_of_resources 	49500
scalar Network900.node820 	time_period 	2
scalar Network900.node820 	number_of_messages 	2
scalar Network900.node820 	discovery_latency 	5478
scalar Network900.node820 	number_of_desired_resources 	20
scalar Network900.node820 	query_homogenity_rate 	33.333333333333
scalar Network900.node820 	qrecord_time 	11614.535747774
scalar Network900.node820 	discovery_resolution_rate 	0
scalar Network900.node500 	rate_of_requesters 	1
scalar Network900.node500 	number_of_resources 	49500
scalar Network900.node500 	time_period 	3
scalar Network900.node500 	number_of_messages 	2
scalar Network900.node500 	discovery_latency 	5646
scalar Network900.node500 	number_of_desired_resources 	20
scalar Network900.node500 	query_homogenity_rate 	33.333333333333
scalar Network900.node500 	qrecord_time 	11642.787423963
scalar Network900.node500 	discovery_resolution_rate 	0
scalar Network900.node660 	rate_of_requesters 	1
scalar Network900.node660 	number_of_resources 	49500
scalar Network900.node660 	time_period 	3
scalar Network900.node660 	number_of_messages 	2
scalar Network900.node660 	discovery_latency 	5706
scalar Network900.node660 	number_of_desired_resources 	20
scalar Network900.node660 	query_homogenity_rate 	33.333333333333
scalar Network900.node660 	qrecord_time 	11650.098171588
scalar Network900.node660 	discovery_resolution_rate 	0
scalar Network900.node570 	rate_of_requesters 	1
scalar Network900.node570 	number_of_resources 	49500
scalar Network900.node570 	time_period 	2
scalar Network900.node570 	number_of_messages 	2
scalar Network900.node570 	discovery_latency 	5550
scalar Network900.node570 	number_of_desired_resources 	20
scalar Network900.node570 	query_homogenity_rate 	33.333333333333
scalar Network900.node570 	qrecord_time 	11650.993887713
scalar Network900.node570 	discovery_resolution_rate 	0
scalar Network900.node800 	rate_of_requesters 	1
scalar Network900.node800 	number_of_resources 	49500
scalar Network900.node800 	time_period 	2
scalar Network900.node800 	number_of_messages 	2
scalar Network900.node800 	discovery_latency 	5574
scalar Network900.node800 	number_of_desired_resources 	20
scalar Network900.node800 	query_homogenity_rate 	33.333333333333
scalar Network900.node800 	qrecord_time 	11658.651843074
scalar Network900.node800 	discovery_resolution_rate 	0
scalar Network900.node450 	rate_of_requesters 	1
scalar Network900.node450 	number_of_resources 	49500
scalar Network900.node450 	time_period 	3
scalar Network900.node450 	number_of_messages 	2
scalar Network900.node450 	discovery_latency 	5550
scalar Network900.node450 	number_of_desired_resources 	20
scalar Network900.node450 	query_homogenity_rate 	33.333333333333
scalar Network900.node450 	qrecord_time 	11711.135109046
scalar Network900.node450 	discovery_resolution_rate 	0
scalar Network900.node540 	rate_of_requesters 	1
scalar Network900.node540 	number_of_resources 	49500
scalar Network900.node540 	time_period 	2
scalar Network900.node540 	number_of_messages 	2
scalar Network900.node540 	discovery_latency 	5502
scalar Network900.node540 	number_of_desired_resources 	20
scalar Network900.node540 	query_homogenity_rate 	33.333333333333
scalar Network900.node540 	qrecord_time 	11880.181568423
scalar Network900.node540 	discovery_resolution_rate 	0
scalar Network900.node30 	rate_of_requesters 	1
scalar Network900.node30 	number_of_resources 	49500
scalar Network900.node30 	time_period 	2
scalar Network900.node30 	number_of_messages 	2
scalar Network900.node30 	discovery_latency 	5478
scalar Network900.node30 	number_of_desired_resources 	20
scalar Network900.node30 	query_homogenity_rate 	33.333333333333
scalar Network900.node30 	qrecord_time 	11916.731944879
scalar Network900.node30 	discovery_resolution_rate 	0
scalar Network900.node580 	rate_of_requesters 	1
scalar Network900.node580 	number_of_resources 	49500
scalar Network900.node580 	time_period 	3
scalar Network900.node580 	number_of_messages 	2
scalar Network900.node580 	discovery_latency 	5430
scalar Network900.node580 	number_of_desired_resources 	20
scalar Network900.node580 	query_homogenity_rate 	33.333333333333
scalar Network900.node580 	qrecord_time 	11921.231739993
scalar Network900.node580 	discovery_resolution_rate 	0
scalar Network900.node480 	rate_of_requesters 	1
scalar Network900.node480 	number_of_resources 	49500
scalar Network900.node480 	time_period 	2
scalar Network900.node480 	number_of_messages 	2
scalar Network900.node480 	discovery_latency 	5370
scalar Network900.node480 	number_of_desired_resources 	20
scalar Network900.node480 	query_homogenity_rate 	33.333333333333
scalar Network900.node480 	qrecord_time 	11940.187505589
scalar Network900.node480 	discovery_resolution_rate 	0
scalar Network900.node450 	rate_of_requesters 	1
scalar Network900.node450 	number_of_resources 	49500
scalar Network900.node450 	time_period 	4
scalar Network900.node450 	number_of_messages 	2
scalar Network900.node450 	discovery_latency 	5454
scalar Network900.node450 	number_of_desired_resources 	20
scalar Network900.node450 	query_homogenity_rate 	33.333333333333
scalar Network900.node450 	qrecord_time 	11974.965931232
scalar Network900.node450 	discovery_resolution_rate 	0
scalar Network900.node410 	rate_of_requesters 	1
scalar Network900.node410 	number_of_resources 	49500
scalar Network900.node410 	time_period 	4
scalar Network900.node410 	number_of_messages 	2
scalar Network900.node410 	discovery_latency 	5514
scalar Network900.node410 	number_of_desired_resources 	20
scalar Network900.node410 	query_homogenity_rate 	33.333333333333
scalar Network900.node410 	qrecord_time 	11979.401196503
scalar Network900.node410 	discovery_resolution_rate 	0
scalar Network900.node510 	rate_of_requesters 	1
scalar Network900.node510 	number_of_resources 	49500
scalar Network900.node510 	time_period 	2
scalar Network900.node510 	number_of_messages 	2
scalar Network900.node510 	discovery_latency 	5442
scalar Network900.node510 	number_of_desired_resources 	20
scalar Network900.node510 	query_homogenity_rate 	33.333333333333
scalar Network900.node510 	qrecord_time 	12004.178853407
scalar Network900.node510 	discovery_resolution_rate 	0
scalar Network900.node480 	rate_of_requesters 	1
scalar Network900.node480 	number_of_resources 	49500
scalar Network900.node480 	time_period 	3
scalar Network900.node480 	number_of_messages 	15
scalar Network900.node480 	discovery_latency 	4992
scalar Network900.node480 	number_of_desired_resources 	20
scalar Network900.node480 	query_homogenity_rate 	33.333333333333
scalar Network900.node480 	qrecord_time 	12026.108484926
scalar Network900.node480 	discovery_resolution_rate 	33.333333333333
scalar Network900.node780 	rate_of_requesters 	1
scalar Network900.node780 	number_of_resources 	49500
scalar Network900.node780 	time_period 	3
scalar Network900.node780 	number_of_messages 	28
scalar Network900.node780 	discovery_latency 	4932
scalar Network900.node780 	number_of_desired_resources 	20
scalar Network900.node780 	query_homogenity_rate 	33.333333333333
scalar Network900.node780 	qrecord_time 	12039.424662805
scalar Network900.node780 	discovery_resolution_rate 	33.333333333333
scalar Network900.node140 	rate_of_requesters 	1
scalar Network900.node140 	number_of_resources 	49500
scalar Network900.node140 	time_period 	3
scalar Network900.node140 	number_of_messages 	2
scalar Network900.node140 	discovery_latency 	5598
scalar Network900.node140 	number_of_desired_resources 	20
scalar Network900.node140 	query_homogenity_rate 	33.333333333333
scalar Network900.node140 	qrecord_time 	12105.12128594
scalar Network900.node140 	discovery_resolution_rate 	0
scalar Network900.node310 	rate_of_requesters 	1
scalar Network900.node310 	number_of_resources 	49500
scalar Network900.node310 	time_period 	2
scalar Network900.node310 	number_of_messages 	2
scalar Network900.node310 	discovery_latency 	5598
scalar Network900.node310 	number_of_desired_resources 	20
scalar Network900.node310 	query_homogenity_rate 	33.333333333333
scalar Network900.node310 	qrecord_time 	12120.654764629
scalar Network900.node310 	discovery_resolution_rate 	0
scalar Network900.node220 	rate_of_requesters 	1
scalar Network900.node220 	number_of_resources 	49500
scalar Network900.node220 	time_period 	2
scalar Network900.node220 	number_of_messages 	2
scalar Network900.node220 	discovery_latency 	5682
scalar Network900.node220 	number_of_desired_resources 	20
scalar Network900.node220 	query_homogenity_rate 	33.333333333333
scalar Network900.node220 	qrecord_time 	12148.962107355
scalar Network900.node220 	discovery_resolution_rate 	0
scalar Network900.node150 	rate_of_requesters 	1
scalar Network900.node150 	number_of_resources 	49500
scalar Network900.node150 	time_period 	2
scalar Network900.node150 	number_of_messages 	2
scalar Network900.node150 	discovery_latency 	5562
scalar Network900.node150 	number_of_desired_resources 	20
scalar Network900.node150 	query_homogenity_rate 	33.333333333333
scalar Network900.node150 	qrecord_time 	12152.636148874
scalar Network900.node150 	discovery_resolution_rate 	0
scalar Network900.node720 	rate_of_requesters 	1
scalar Network900.node720 	number_of_resources 	49500
scalar Network900.node720 	time_period 	2
scalar Network900.node720 	number_of_messages 	2
scalar Network900.node720 	discovery_latency 	5490
scalar Network900.node720 	number_of_desired_resources 	20
scalar Network900.node720 	query_homogenity_rate 	33.333333333333
scalar Network900.node720 	qrecord_time 	12225.798363448
scalar Network900.node720 	discovery_resolution_rate 	0
scalar Network900.node560 	rate_of_requesters 	1
scalar Network900.node560 	number_of_resources 	49500
scalar Network900.node560 	time_period 	3
scalar Network900.node560 	number_of_messages 	51
scalar Network900.node560 	discovery_latency 	4944
scalar Network900.node560 	number_of_desired_resources 	20
scalar Network900.node560 	query_homogenity_rate 	33.333333333333
scalar Network900.node560 	qrecord_time 	12254.454256146
scalar Network900.node560 	discovery_resolution_rate 	66.666666666667
scalar Network900.node500 	rate_of_requesters 	1
scalar Network900.node500 	number_of_resources 	49500
scalar Network900.node500 	time_period 	4
scalar Network900.node500 	number_of_messages 	2
scalar Network900.node500 	discovery_latency 	5550
scalar Network900.node500 	number_of_desired_resources 	20
scalar Network900.node500 	query_homogenity_rate 	33.333333333333
scalar Network900.node500 	qrecord_time 	12308.97813432
scalar Network900.node500 	discovery_resolution_rate 	0
scalar Network900.node590 	rate_of_requesters 	1
scalar Network900.node590 	number_of_resources 	49500
scalar Network900.node590 	time_period 	3
scalar Network900.node590 	number_of_messages 	0
scalar Network900.node590 	discovery_latency 	5646
scalar Network900.node590 	number_of_desired_resources 	20
scalar Network900.node590 	query_homogenity_rate 	33.333333333333
scalar Network900.node590 	qrecord_time 	12366.071416979
scalar Network900.node590 	discovery_resolution_rate 	0
scalar Network900.node240 	rate_of_requesters 	1
scalar Network900.node240 	number_of_resources 	49500
scalar Network900.node240 	time_period 	2
scalar Network900.node240 	number_of_messages 	2
scalar Network900.node240 	discovery_latency 	5550
scalar Network900.node240 	number_of_desired_resources 	20
scalar Network900.node240 	query_homogenity_rate 	33.333333333333
scalar Network900.node240 	qrecord_time 	12386.909915479
scalar Network900.node240 	discovery_resolution_rate 	0
scalar Network900.node130 	rate_of_requesters 	1
scalar Network900.node130 	number_of_resources 	49500
scalar Network900.node130 	time_period 	3
scalar Network900.node130 	number_of_messages 	17
scalar Network900.node130 	discovery_latency 	5478
scalar Network900.node130 	number_of_desired_resources 	20
scalar Network900.node130 	query_homogenity_rate 	33.333333333333
scalar Network900.node130 	qrecord_time 	12409.771500644
scalar Network900.node130 	discovery_resolution_rate 	33.333333333333
scalar Network900.node590 	rate_of_requesters 	1
scalar Network900.node590 	number_of_resources 	49500
scalar Network900.node590 	time_period 	4
scalar Network900.node590 	number_of_messages 	0
scalar Network900.node590 	discovery_latency 	5514
scalar Network900.node590 	number_of_desired_resources 	20
scalar Network900.node590 	query_homogenity_rate 	33.333333333333
scalar Network900.node590 	qrecord_time 	12505.014913964
scalar Network900.node590 	discovery_resolution_rate 	0
scalar Network900.node280 	rate_of_requesters 	1
scalar Network900.node280 	number_of_resources 	49500
scalar Network900.node280 	time_period 	2
scalar Network900.node280 	number_of_messages 	2
scalar Network900.node280 	discovery_latency 	5346
scalar Network900.node280 	number_of_desired_resources 	20
scalar Network900.node280 	query_homogenity_rate 	33.333333333333
scalar Network900.node280 	qrecord_time 	12524.283337052
scalar Network900.node280 	discovery_resolution_rate 	0
scalar Network900.node220 	rate_of_requesters 	1
scalar Network900.node220 	number_of_resources 	49500
scalar Network900.node220 	time_period 	3
scalar Network900.node220 	number_of_messages 	47
scalar Network900.node220 	discovery_latency 	5466
scalar Network900.node220 	number_of_desired_resources 	20
scalar Network900.node220 	query_homogenity_rate 	33.333333333333
scalar Network900.node220 	qrecord_time 	12584.019906343
scalar Network900.node220 	discovery_resolution_rate 	66.666666666667
scalar Network900.node570 	rate_of_requesters 	1
scalar Network900.node570 	number_of_resources 	49500
scalar Network900.node570 	time_period 	3
scalar Network900.node570 	number_of_messages 	2
scalar Network900.node570 	discovery_latency 	5610
scalar Network900.node570 	number_of_desired_resources 	20
scalar Network900.node570 	query_homogenity_rate 	33.333333333333
scalar Network900.node570 	qrecord_time 	12634.320185947
scalar Network900.node570 	discovery_resolution_rate 	0
scalar Network900.node530 	rate_of_requesters 	1
scalar Network900.node530 	number_of_resources 	49500
scalar Network900.node530 	time_period 	2
scalar Network900.node530 	number_of_messages 	0
scalar Network900.node530 	discovery_latency 	5490
scalar Network900.node530 	number_of_desired_resources 	20
scalar Network900.node530 	query_homogenity_rate 	33.333333333333
scalar Network900.node530 	qrecord_time 	12901.238483542
scalar Network900.node530 	discovery_resolution_rate 	0
scalar Network900.node170 	rate_of_requesters 	1
scalar Network900.node170 	number_of_resources 	49500
[...]
scalar Network900.node520 	discovery_latency 	576
scalar Network900.node520 	number_of_desired_resources 	20
scalar Network900.node520 	query_homogenity_rate 	33.333333333333
scalar Network900.node520 	qrecord_time 	55462.092043744
scalar Network900.node520 	discovery_resolution_rate 	100
scalar Network900.node70 	rate_of_requesters 	1
scalar Network900.node70 	number_of_resources 	49500
scalar Network900.node70 	time_period 	5
scalar Network900.node70 	number_of_messages 	30
scalar Network900.node70 	discovery_latency 	4740
scalar Network900.node70 	number_of_desired_resources 	20
scalar Network900.node70 	query_homogenity_rate 	33.333333333333
scalar Network900.node70 	qrecord_time 	55528.964638505
scalar Network900.node70 	discovery_resolution_rate 	66.666666666667
scalar Network900.node460 	rate_of_requesters 	1
scalar Network900.node460 	number_of_resources 	49500
scalar Network900.node460 	time_period 	9
scalar Network900.node460 	number_of_messages 	14
scalar Network900.node460 	discovery_latency 	4740
scalar Network900.node460 	number_of_desired_resources 	20
scalar Network900.node460 	query_homogenity_rate 	33.333333333333
scalar Network900.node460 	qrecord_time 	56704.932088525
scalar Network900.node460 	discovery_resolution_rate 	66.666666666667
scalar Network900.node110 	rate_of_requesters 	1
scalar Network900.node110 	number_of_resources 	49500
scalar Network900.node110 	time_period 	10
scalar Network900.node110 	number_of_messages 	21
scalar Network900.node110 	discovery_latency 	4848
scalar Network900.node110 	number_of_desired_resources 	20
scalar Network900.node110 	query_homogenity_rate 	33.333333333333
scalar Network900.node110 	qrecord_time 	56967.024218738
scalar Network900.node110 	discovery_resolution_rate 	66.666666666667
scalar Network900.node460 	rate_of_requesters 	1
scalar Network900.node460 	number_of_resources 	49500
scalar Network900.node460 	time_period 	10
scalar Network900.node460 	number_of_messages 	228
scalar Network900.node460 	discovery_latency 	4716
scalar Network900.node460 	number_of_desired_resources 	20
scalar Network900.node460 	query_homogenity_rate 	33.333333333333
scalar Network900.node460 	qrecord_time 	57010.387892895
scalar Network900.node460 	discovery_resolution_rate 	83.333333333333
scalar Network900.node70 	rate_of_requesters 	1
scalar Network900.node70 	number_of_resources 	49500
scalar Network900.node70 	time_period 	6
scalar Network900.node70 	number_of_messages 	20
scalar Network900.node70 	discovery_latency 	4872
scalar Network900.node70 	number_of_desired_resources 	20
scalar Network900.node70 	query_homogenity_rate 	33.333333333333
scalar Network900.node70 	qrecord_time 	57344.711914796
scalar Network900.node70 	discovery_resolution_rate 	33.333333333333
scalar Network900.node60 	rate_of_requesters 	1
scalar Network900.node60 	number_of_resources 	49500
scalar Network900.node60 	time_period 	8
scalar Network900.node60 	number_of_messages 	15
scalar Network900.node60 	discovery_latency 	4812
scalar Network900.node60 	number_of_desired_resources 	20
scalar Network900.node60 	query_homogenity_rate 	33.333333333333
scalar Network900.node60 	qrecord_time 	57534.592281462
scalar Network900.node60 	discovery_resolution_rate 	33.333333333333
scalar Network900.node640 	rate_of_requesters 	1
scalar Network900.node640 	number_of_resources 	49500
scalar Network900.node640 	time_period 	9
scalar Network900.node640 	number_of_messages 	66
scalar Network900.node640 	discovery_latency 	4848
scalar Network900.node640 	number_of_desired_resources 	20
scalar Network900.node640 	query_homogenity_rate 	33.333333333333
scalar Network900.node640 	qrecord_time 	57722.868445856
scalar Network900.node640 	discovery_resolution_rate 	33.333333333333
scalar Network900.node40 	rate_of_requesters 	1
scalar Network900.node40 	number_of_resources 	49500
scalar Network900.node40 	time_period 	8
scalar Network900.node40 	number_of_messages 	57
scalar Network900.node40 	discovery_latency 	4812
scalar Network900.node40 	number_of_desired_resources 	20
scalar Network900.node40 	query_homogenity_rate 	33.333333333333
scalar Network900.node40 	qrecord_time 	57764.799157414
scalar Network900.node40 	discovery_resolution_rate 	33.333333333333
scalar Network900.node90 	rate_of_requesters 	1
scalar Network900.node90 	number_of_resources 	49500
scalar Network900.node90 	time_period 	8
scalar Network900.node90 	number_of_messages 	56
scalar Network900.node90 	discovery_latency 	5028
scalar Network900.node90 	number_of_desired_resources 	20
scalar Network900.node90 	query_homogenity_rate 	33.333333333333
scalar Network900.node90 	qrecord_time 	57951.103498025
scalar Network900.node90 	discovery_resolution_rate 	33.333333333333
scalar Network900.node90 	rate_of_requesters 	1
scalar Network900.node90 	number_of_resources 	49500
scalar Network900.node90 	time_period 	9
scalar Network900.node90 	number_of_messages 	14
scalar Network900.node90 	discovery_latency 	4908
scalar Network900.node90 	number_of_desired_resources 	20
scalar Network900.node90 	query_homogenity_rate 	33.333333333333
scalar Network900.node90 	qrecord_time 	58183.754773295
scalar Network900.node90 	discovery_resolution_rate 	33.333333333333
scalar Network900.node60 	rate_of_requesters 	1
scalar Network900.node60 	number_of_resources 	49500
scalar Network900.node60 	time_period 	9
scalar Network900.node60 	number_of_messages 	41
scalar Network900.node60 	discovery_latency 	4860
scalar Network900.node60 	number_of_desired_resources 	20
scalar Network900.node60 	query_homogenity_rate 	33.333333333333
scalar Network900.node60 	qrecord_time 	58343.147697377
scalar Network900.node60 	discovery_resolution_rate 	33.333333333333
scalar Network900.node230 	rate_of_requesters 	1
scalar Network900.node230 	number_of_resources 	49500
scalar Network900.node230 	time_period 	9
scalar Network900.node230 	number_of_messages 	37
scalar Network900.node230 	discovery_latency 	444
scalar Network900.node230 	number_of_desired_resources 	20
scalar Network900.node230 	query_homogenity_rate 	33.333333333333
scalar Network900.node230 	qrecord_time 	58509.620516313
scalar Network900.node230 	discovery_resolution_rate 	100
scalar Network900.node330 	rate_of_requesters 	1
scalar Network900.node330 	number_of_resources 	49500
scalar Network900.node330 	time_period 	10
scalar Network900.node330 	number_of_messages 	57
scalar Network900.node330 	discovery_latency 	5028
scalar Network900.node330 	number_of_desired_resources 	20
scalar Network900.node330 	query_homogenity_rate 	33.333333333333
scalar Network900.node330 	qrecord_time 	58731.199938543
scalar Network900.node330 	discovery_resolution_rate 	66.666666666667
scalar Network900.node70 	rate_of_requesters 	1
scalar Network900.node70 	number_of_resources 	49500
scalar Network900.node70 	time_period 	7
scalar Network900.node70 	number_of_messages 	41
scalar Network900.node70 	discovery_latency 	5028
scalar Network900.node70 	number_of_desired_resources 	20
scalar Network900.node70 	query_homogenity_rate 	33.333333333333
scalar Network900.node70 	qrecord_time 	58854.933826983
scalar Network900.node70 	discovery_resolution_rate 	33.333333333333
scalar Network900.node290 	rate_of_requesters 	1
scalar Network900.node290 	number_of_resources 	49500
scalar Network900.node290 	time_period 	10
scalar Network900.node290 	number_of_messages 	2
scalar Network900.node290 	discovery_latency 	5514
scalar Network900.node290 	number_of_desired_resources 	20
scalar Network900.node290 	query_homogenity_rate 	33.333333333333
scalar Network900.node290 	qrecord_time 	58998.612803685
scalar Network900.node290 	discovery_resolution_rate 	0
scalar Network900.node520 	rate_of_requesters 	1
scalar Network900.node520 	number_of_resources 	49500
scalar Network900.node520 	time_period 	8
scalar Network900.node520 	number_of_messages 	251
scalar Network900.node520 	discovery_latency 	5028
scalar Network900.node520 	number_of_desired_resources 	20
scalar Network900.node520 	query_homogenity_rate 	33.333333333333
scalar Network900.node520 	qrecord_time 	59099.508984946
scalar Network900.node520 	discovery_resolution_rate 	50
scalar Network900.node440 	rate_of_requesters 	1
scalar Network900.node440 	number_of_resources 	49500
scalar Network900.node440 	time_period 	10
scalar Network900.node440 	number_of_messages 	23
scalar Network900.node440 	discovery_latency 	228
scalar Network900.node440 	number_of_desired_resources 	20
scalar Network900.node440 	query_homogenity_rate 	33.333333333333
scalar Network900.node440 	qrecord_time 	59325.927134939
scalar Network900.node440 	discovery_resolution_rate 	100
scalar Network900.node40 	rate_of_requesters 	1
scalar Network900.node40 	number_of_resources 	49500
scalar Network900.node40 	time_period 	9
scalar Network900.node40 	number_of_messages 	17
scalar Network900.node40 	discovery_latency 	4932
scalar Network900.node40 	number_of_desired_resources 	20
scalar Network900.node40 	query_homogenity_rate 	33.333333333333
scalar Network900.node40 	qrecord_time 	59384.876045362
scalar Network900.node40 	discovery_resolution_rate 	66.666666666667
scalar Network900.node350 	rate_of_requesters 	1
scalar Network900.node350 	number_of_resources 	49500
scalar Network900.node350 	time_period 	10
scalar Network900.node350 	number_of_messages 	53
scalar Network900.node350 	discovery_latency 	492
scalar Network900.node350 	number_of_desired_resources 	20
scalar Network900.node350 	query_homogenity_rate 	33.333333333333
scalar Network900.node350 	qrecord_time 	59535.894169676
scalar Network900.node350 	discovery_resolution_rate 	100
scalar Network900.node640 	rate_of_requesters 	1
scalar Network900.node640 	number_of_resources 	49500
scalar Network900.node640 	time_period 	10
scalar Network900.node640 	number_of_messages 	29
scalar Network900.node640 	discovery_latency 	360
scalar Network900.node640 	number_of_desired_resources 	20
scalar Network900.node640 	query_homogenity_rate 	33.333333333333
scalar Network900.node640 	qrecord_time 	59606.573030916
scalar Network900.node640 	discovery_resolution_rate 	100
scalar Network900.node350 	rate_of_requesters 	1
scalar Network900.node350 	number_of_resources 	49500
scalar Network900.node350 	time_period 	9
scalar Network900.node350 	number_of_messages 	252
scalar Network900.node350 	discovery_latency 	4908
scalar Network900.node350 	number_of_desired_resources 	20
scalar Network900.node350 	query_homogenity_rate 	33.333333333333
scalar Network900.node350 	qrecord_time 	59789.092854855
scalar Network900.node350 	discovery_resolution_rate 	83.333333333333
scalar Network900.node440 	rate_of_requesters 	1
scalar Network900.node440 	number_of_resources 	49500
scalar Network900.node440 	time_period 	9
scalar Network900.node440 	number_of_messages 	6
scalar Network900.node440 	discovery_latency 	5040
scalar Network900.node440 	number_of_desired_resources 	20
scalar Network900.node440 	query_homogenity_rate 	33.333333333333
scalar Network900.node440 	qrecord_time 	59983.886935301
scalar Network900.node440 	discovery_resolution_rate 	33.333333333333
scalar Network900.node750 	rate_of_requesters 	1
scalar Network900.node750 	number_of_resources 	49500
scalar Network900.node750 	time_period 	10
scalar Network900.node750 	number_of_messages 	243
scalar Network900.node750 	discovery_latency 	4764
scalar Network900.node750 	number_of_desired_resources 	20
scalar Network900.node750 	query_homogenity_rate 	33.333333333333
scalar Network900.node750 	qrecord_time 	60101.262936699
scalar Network900.node750 	discovery_resolution_rate 	83.333333333333
scalar Network900.node520 	rate_of_requesters 	1
scalar Network900.node520 	number_of_resources 	49500
scalar Network900.node520 	time_period 	10
scalar Network900.node520 	number_of_messages 	222
scalar Network900.node520 	discovery_latency 	5004
scalar Network900.node520 	number_of_desired_resources 	20
scalar Network900.node520 	query_homogenity_rate 	33.333333333333
scalar Network900.node520 	qrecord_time 	60204.756763417
scalar Network900.node520 	discovery_resolution_rate 	50
scalar Network900.node70 	rate_of_requesters 	1
scalar Network900.node70 	number_of_resources 	49500
scalar Network900.node70 	time_period 	8
scalar Network900.node70 	number_of_messages 	22
scalar Network900.node70 	discovery_latency 	4956
scalar Network900.node70 	number_of_desired_resources 	20
scalar Network900.node70 	query_homogenity_rate 	33.333333333333
scalar Network900.node70 	qrecord_time 	60566.923041121
scalar Network900.node70 	discovery_resolution_rate 	66.666666666667
scalar Network900.node230 	rate_of_requesters 	1
scalar Network900.node230 	number_of_resources 	49500
scalar Network900.node230 	time_period 	8
scalar Network900.node230 	number_of_messages 	63
scalar Network900.node230 	discovery_latency 	5160
scalar Network900.node230 	number_of_desired_resources 	20
scalar Network900.node230 	query_homogenity_rate 	33.333333333333
scalar Network900.node230 	qrecord_time 	60871.91251963
scalar Network900.node230 	discovery_resolution_rate 	33.333333333333
scalar Network900.node790 	rate_of_requesters 	1
scalar Network900.node790 	number_of_resources 	49500
scalar Network900.node790 	time_period 	9
scalar Network900.node790 	number_of_messages 	6
scalar Network900.node790 	discovery_latency 	5040
scalar Network900.node790 	number_of_desired_resources 	20
scalar Network900.node790 	query_homogenity_rate 	33.333333333333
scalar Network900.node790 	qrecord_time 	61316.486157343
scalar Network900.node790 	discovery_resolution_rate 	33.333333333333
scalar Network900.node270 	rate_of_requesters 	1
scalar Network900.node270 	number_of_resources 	49500
scalar Network900.node270 	time_period 	9
scalar Network900.node270 	number_of_messages 	28
scalar Network900.node270 	discovery_latency 	5076
scalar Network900.node270 	number_of_desired_resources 	20
scalar Network900.node270 	query_homogenity_rate 	33.333333333333
scalar Network900.node270 	qrecord_time 	61456.9515684
scalar Network900.node270 	discovery_resolution_rate 	66.666666666667
scalar Network900.node270 	rate_of_requesters 	1
scalar Network900.node270 	number_of_resources 	49500
scalar Network900.node270 	time_period 	10
scalar Network900.node270 	number_of_messages 	55
scalar Network900.node270 	discovery_latency 	696.00000000001
scalar Network900.node270 	number_of_desired_resources 	20
scalar Network900.node270 	query_homogenity_rate 	33.333333333333
scalar Network900.node270 	qrecord_time 	61750.140159658
scalar Network900.node270 	discovery_resolution_rate 	100
scalar Network900.node490 	rate_of_requesters 	1
scalar Network900.node490 	number_of_resources 	49500
scalar Network900.node490 	time_period 	10
scalar Network900.node490 	number_of_messages 	33
scalar Network900.node490 	discovery_latency 	4920
scalar Network900.node490 	number_of_desired_resources 	20
scalar Network900.node490 	query_homogenity_rate 	33.333333333333
scalar Network900.node490 	qrecord_time 	61964.604748054
scalar Network900.node490 	discovery_resolution_rate 	33.333333333333
scalar Network900.node70 	rate_of_requesters 	1
scalar Network900.node70 	number_of_resources 	49500
scalar Network900.node70 	time_period 	9
scalar Network900.node70 	number_of_messages 	138
scalar Network900.node70 	discovery_latency 	4908
scalar Network900.node70 	number_of_desired_resources 	20
scalar Network900.node70 	query_homogenity_rate 	33.333333333333
scalar Network900.node70 	qrecord_time 	62061.693792369
scalar Network900.node70 	discovery_resolution_rate 	66.666666666667
scalar Network900.node70 	rate_of_requesters 	1
scalar Network900.node70 	number_of_resources 	49500
scalar Network900.node70 	time_period 	10
scalar Network900.node70 	number_of_messages 	22
scalar Network900.node70 	discovery_latency 	252
scalar Network900.node70 	number_of_desired_resources 	20
scalar Network900.node70 	query_homogenity_rate 	33.333333333333
scalar Network900.node70 	qrecord_time 	62760.793998506
scalar Network900.node70 	discovery_resolution_rate 	100
scalar Network900.node60 	rate_of_requesters 	1
scalar Network900.node60 	number_of_resources 	49500
scalar Network900.node60 	time_period 	10
scalar Network900.node60 	number_of_messages 	78
scalar Network900.node60 	discovery_latency 	1416
scalar Network900.node60 	number_of_desired_resources 	20
scalar Network900.node60 	query_homogenity_rate 	33.333333333333
scalar Network900.node60 	qrecord_time 	62897.020219219
scalar Network900.node60 	discovery_resolution_rate 	100
scalar Network900.node790 	rate_of_requesters 	1
scalar Network900.node790 	number_of_resources 	49500
scalar Network900.node790 	time_period 	10
scalar Network900.node790 	number_of_messages 	249
scalar Network900.node790 	discovery_latency 	4968
scalar Network900.node790 	number_of_desired_resources 	20
scalar Network900.node790 	query_homogenity_rate 	33.333333333333
scalar Network900.node790 	qrecord_time 	64258.676890754
scalar Network900.node790 	discovery_resolution_rate 	83.333333333333
scalar Network900.node90 	rate_of_requesters 	1
scalar Network900.node90 	number_of_resources 	49500
scalar Network900.node90 	time_period 	10
scalar Network900.node90 	number_of_messages 	58
scalar Network900.node90 	discovery_latency 	5136
scalar Network900.node90 	number_of_desired_resources 	20
scalar Network900.node90 	query_homogenity_rate 	33.333333333333
scalar Network900.node90 	qrecord_time 	65125.090732885
scalar Network900.node90 	discovery_resolution_rate 	66.666666666667
scalar Network900.node40 	rate_of_requesters 	1
scalar Network900.node40 	number_of_resources 	49500
scalar Network900.node40 	time_period 	10
scalar Network900.node40 	number_of_messages 	80
scalar Network900.node40 	discovery_latency 	5064
scalar Network900.node40 	number_of_desired_resources 	20
scalar Network900.node40 	query_homogenity_rate 	33.333333333333
scalar Network900.node40 	qrecord_time 	66215.042921053
scalar Network900.node40 	discovery_resolution_rate 	66.666666666667
scalar Network900.node230 	rate_of_requesters 	1
scalar Network900.node230 	number_of_resources 	49500
scalar Network900.node230 	time_period 	10
scalar Network900.node230 	number_of_messages 	27
scalar Network900.node230 	discovery_latency 	288
scalar Network900.node230 	number_of_desired_resources 	20
scalar Network900.node230 	query_homogenity_rate 	33.333333333333
scalar Network900.node230 	qrecord_time 	66755.345718522
scalar Network900.node230 	discovery_resolution_rate 	100
scalar Network900.node770 	rate_of_requesters 	1
scalar Network900.node770 	number_of_resources 	49500
scalar Network900.node770 	time_period 	8
scalar Network900.node770 	number_of_messages 	18
scalar Network900.node770 	discovery_latency 	144.00000000001
scalar Network900.node770 	number_of_desired_resources 	20
scalar Network900.node770 	query_homogenity_rate 	33.333333333333
scalar Network900.node770 	qrecord_time 	74571.153945228
scalar Network900.node770 	discovery_resolution_rate 	100
scalar Network900.node770 	rate_of_requesters 	1
scalar Network900.node770 	number_of_resources 	49500
scalar Network900.node770 	time_period 	9
scalar Network900.node770 	number_of_messages 	28
scalar Network900.node770 	discovery_latency 	312.00000000001
scalar Network900.node770 	number_of_desired_resources 	20
scalar Network900.node770 	query_homogenity_rate 	33.333333333333
scalar Network900.node770 	qrecord_time 	75223.254569678
scalar Network900.node770 	discovery_resolution_rate 	100
scalar Network900.node770 	rate_of_requesters 	1
scalar Network900.node770 	number_of_resources 	49500
scalar Network900.node770 	time_period 	10
scalar Network900.node770 	number_of_messages 	18
scalar Network900.node770 	discovery_latency 	144.00000000001
scalar Network900.node770 	number_of_desired_resources 	20
scalar Network900.node770 	query_homogenity_rate 	33.333333333333
scalar Network900.node770 	qrecord_time 	81865.541831364
scalar Network900.node770 	discovery_resolution_rate 	100
