version 2
run net700-281-20150319-01:42:35-31567
attr configname net700
attr datetime 20150319-01:42:35
attr dnor 15
attr experiment net700
attr inifile omnetpp.ini
attr iterationvars "$rhdrq=5, $dnor=15"
attr iterationvars2 "$rhdrq=5, $dnor=15, $repetition=1"
attr measurement "$rhdrq=5, $dnor=15"
attr network Network700
attr processid 31567
attr repetition 1
attr replication #1
attr resultdir results
attr rhdrq 5
attr runnumber 281
attr seedset 281

scalar . 	dnor 	15
scalar . 	rhdrq 	5
scalar Network700.node90 	rate_of_requesters 	1
scalar Network700.node90 	number_of_resources 	38500
scalar Network700.node90 	time_period 	1
scalar Network700.node90 	number_of_messages 	42
scalar Network700.node90 	discovery_latency 	204
scalar Network700.node90 	number_of_desired_resources 	15
scalar Network700.node90 	query_homogenity_rate 	20
scalar Network700.node90 	qrecord_time 	4912
scalar Network700.node90 	discovery_resolution_rate 	100
scalar Network700.node130 	rate_of_requesters 	1
scalar Network700.node130 	number_of_resources 	38500
scalar Network700.node130 	time_period 	1
scalar Network700.node130 	number_of_messages 	47
scalar Network700.node130 	discovery_latency 	216
scalar Network700.node130 	number_of_desired_resources 	15
scalar Network700.node130 	query_homogenity_rate 	20
scalar Network700.node130 	qrecord_time 	4912
scalar Network700.node130 	discovery_resolution_rate 	100
scalar Network700.node530 	rate_of_requesters 	1
scalar Network700.node530 	number_of_resources 	38500
scalar Network700.node530 	time_period 	1
scalar Network700.node530 	number_of_messages 	31
scalar Network700.node530 	discovery_latency 	168
scalar Network700.node530 	number_of_desired_resources 	15
scalar Network700.node530 	query_homogenity_rate 	20
scalar Network700.node530 	qrecord_time 	4918
scalar Network700.node530 	discovery_resolution_rate 	100
scalar Network700.node230 	rate_of_requesters 	1
scalar Network700.node230 	number_of_resources 	38500
scalar Network700.node230 	time_period 	1
scalar Network700.node230 	number_of_messages 	37
scalar Network700.node230 	discovery_latency 	204
scalar Network700.node230 	number_of_desired_resources 	15
scalar Network700.node230 	query_homogenity_rate 	20
scalar Network700.node230 	qrecord_time 	4918
scalar Network700.node230 	discovery_resolution_rate 	100
scalar Network700.node430 	rate_of_requesters 	1
scalar Network700.node430 	number_of_resources 	38500
scalar Network700.node430 	time_period 	1
scalar Network700.node430 	number_of_messages 	46
scalar Network700.node430 	discovery_latency 	240
scalar Network700.node430 	number_of_desired_resources 	15
scalar Network700.node430 	query_homogenity_rate 	20
scalar Network700.node430 	qrecord_time 	4930
scalar Network700.node430 	discovery_resolution_rate 	100
scalar Network700.node270 	rate_of_requesters 	1
scalar Network700.node270 	number_of_resources 	38500
scalar Network700.node270 	time_period 	1
scalar Network700.node270 	number_of_messages 	22
scalar Network700.node270 	discovery_latency 	180
scalar Network700.node270 	number_of_desired_resources 	15
scalar Network700.node270 	query_homogenity_rate 	20
scalar Network700.node270 	qrecord_time 	4930
scalar Network700.node270 	discovery_resolution_rate 	100
scalar Network700.node480 	rate_of_requesters 	1
scalar Network700.node480 	number_of_resources 	38500
scalar Network700.node480 	time_period 	1
scalar Network700.node480 	number_of_messages 	53
scalar Network700.node480 	discovery_latency 	288
scalar Network700.node480 	number_of_desired_resources 	15
scalar Network700.node480 	query_homogenity_rate 	20
scalar Network700.node480 	qrecord_time 	4930
scalar Network700.node480 	discovery_resolution_rate 	100
scalar Network700.node10 	rate_of_requesters 	1
scalar Network700.node10 	number_of_resources 	38500
scalar Network700.node10 	time_period 	1
scalar Network700.node10 	number_of_messages 	27
scalar Network700.node10 	discovery_latency 	204
scalar Network700.node10 	number_of_desired_resources 	15
scalar Network700.node10 	query_homogenity_rate 	20
scalar Network700.node10 	qrecord_time 	4942
scalar Network700.node10 	discovery_resolution_rate 	100
scalar Network700.node650 	rate_of_requesters 	1
scalar Network700.node650 	number_of_resources 	38500
scalar Network700.node650 	time_period 	1
scalar Network700.node650 	number_of_messages 	48
scalar Network700.node650 	discovery_latency 	252
scalar Network700.node650 	number_of_desired_resources 	15
scalar Network700.node650 	query_homogenity_rate 	20
scalar Network700.node650 	qrecord_time 	4942
scalar Network700.node650 	discovery_resolution_rate 	100
scalar Network700.node180 	rate_of_requesters 	1
scalar Network700.node180 	number_of_resources 	38500
scalar Network700.node180 	time_period 	1
scalar Network700.node180 	number_of_messages 	58
scalar Network700.node180 	discovery_latency 	252
scalar Network700.node180 	number_of_desired_resources 	15
scalar Network700.node180 	query_homogenity_rate 	20
scalar Network700.node180 	qrecord_time 	4984
scalar Network700.node180 	discovery_resolution_rate 	100
scalar Network700.node440 	rate_of_requesters 	1
scalar Network700.node440 	number_of_resources 	38500
scalar Network700.node440 	time_period 	1
scalar Network700.node440 	number_of_messages 	58
scalar Network700.node440 	discovery_latency 	336
scalar Network700.node440 	number_of_desired_resources 	15
scalar Network700.node440 	query_homogenity_rate 	20
scalar Network700.node440 	qrecord_time 	4984
scalar Network700.node440 	discovery_resolution_rate 	100
scalar Network700.node310 	rate_of_requesters 	1
scalar Network700.node310 	number_of_resources 	38500
scalar Network700.node310 	time_period 	1
scalar Network700.node310 	number_of_messages 	69
scalar Network700.node310 	discovery_latency 	324
scalar Network700.node310 	number_of_desired_resources 	15
scalar Network700.node310 	query_homogenity_rate 	20
scalar Network700.node310 	qrecord_time 	5008
scalar Network700.node310 	discovery_resolution_rate 	100
scalar Network700.node150 	rate_of_requesters 	1
scalar Network700.node150 	number_of_resources 	38500
scalar Network700.node150 	time_period 	1
scalar Network700.node150 	number_of_messages 	32
scalar Network700.node150 	discovery_latency 	264
scalar Network700.node150 	number_of_desired_resources 	15
scalar Network700.node150 	query_homogenity_rate 	20
scalar Network700.node150 	qrecord_time 	5008
scalar Network700.node150 	discovery_resolution_rate 	100
scalar Network700.node420 	rate_of_requesters 	1
scalar Network700.node420 	number_of_resources 	38500
scalar Network700.node420 	time_period 	1
scalar Network700.node420 	number_of_messages 	43
scalar Network700.node420 	discovery_latency 	330
scalar Network700.node420 	number_of_desired_resources 	15
scalar Network700.node420 	query_homogenity_rate 	20
scalar Network700.node420 	qrecord_time 	5056
scalar Network700.node420 	discovery_resolution_rate 	100
scalar Network700.node60 	rate_of_requesters 	1
scalar Network700.node60 	number_of_resources 	38500
scalar Network700.node60 	time_period 	1
scalar Network700.node60 	number_of_messages 	54
scalar Network700.node60 	discovery_latency 	348
scalar Network700.node60 	number_of_desired_resources 	15
scalar Network700.node60 	query_homogenity_rate 	20
scalar Network700.node60 	qrecord_time 	5056
scalar Network700.node60 	discovery_resolution_rate 	100
scalar Network700.node590 	rate_of_requesters 	1
scalar Network700.node590 	number_of_resources 	38500
scalar Network700.node590 	time_period 	1
scalar Network700.node590 	number_of_messages 	57
scalar Network700.node590 	discovery_latency 	360
scalar Network700.node590 	number_of_desired_resources 	15
scalar Network700.node590 	query_homogenity_rate 	20
scalar Network700.node590 	qrecord_time 	5068
scalar Network700.node590 	discovery_resolution_rate 	100
scalar Network700.node400 	rate_of_requesters 	1
scalar Network700.node400 	number_of_resources 	38500
scalar Network700.node400 	time_period 	1
scalar Network700.node400 	number_of_messages 	70
scalar Network700.node400 	discovery_latency 	414
scalar Network700.node400 	number_of_desired_resources 	15
scalar Network700.node400 	query_homogenity_rate 	20
scalar Network700.node400 	qrecord_time 	5080
scalar Network700.node400 	discovery_resolution_rate 	100
scalar Network700.node50 	rate_of_requesters 	1
scalar Network700.node50 	number_of_resources 	38500
scalar Network700.node50 	time_period 	1
scalar Network700.node50 	number_of_messages 	54
scalar Network700.node50 	discovery_latency 	396
scalar Network700.node50 	number_of_desired_resources 	15
scalar Network700.node50 	query_homogenity_rate 	20
scalar Network700.node50 	qrecord_time 	5086
scalar Network700.node50 	discovery_resolution_rate 	100
scalar Network700.node70 	rate_of_requesters 	1
scalar Network700.node70 	number_of_resources 	38500
scalar Network700.node70 	time_period 	1
scalar Network700.node70 	number_of_messages 	35
scalar Network700.node70 	discovery_latency 	336
scalar Network700.node70 	number_of_desired_resources 	15
scalar Network700.node70 	query_homogenity_rate 	20
scalar Network700.node70 	qrecord_time 	5092
scalar Network700.node70 	discovery_resolution_rate 	100
scalar Network700.node210 	rate_of_requesters 	1
scalar Network700.node210 	number_of_resources 	38500
scalar Network700.node210 	time_period 	1
scalar Network700.node210 	number_of_messages 	74
scalar Network700.node210 	discovery_latency 	408
scalar Network700.node210 	number_of_desired_resources 	15
scalar Network700.node210 	query_homogenity_rate 	20
scalar Network700.node210 	qrecord_time 	5098
scalar Network700.node210 	discovery_resolution_rate 	100
scalar Network700.node570 	rate_of_requesters 	1
scalar Network700.node570 	number_of_resources 	38500
scalar Network700.node570 	time_period 	1
scalar Network700.node570 	number_of_messages 	47
scalar Network700.node570 	discovery_latency 	384
scalar Network700.node570 	number_of_desired_resources 	15
scalar Network700.node570 	query_homogenity_rate 	20
scalar Network700.node570 	qrecord_time 	5104
scalar Network700.node570 	discovery_resolution_rate 	100
scalar Network700.node220 	rate_of_requesters 	1
scalar Network700.node220 	number_of_resources 	38500
scalar Network700.node220 	time_period 	1
scalar Network700.node220 	number_of_messages 	53
scalar Network700.node220 	discovery_latency 	336
scalar Network700.node220 	number_of_desired_resources 	15
scalar Network700.node220 	query_homogenity_rate 	20
scalar Network700.node220 	qrecord_time 	5110
scalar Network700.node220 	discovery_resolution_rate 	100
scalar Network700.node500 	rate_of_requesters 	1
scalar Network700.node500 	number_of_resources 	38500
scalar Network700.node500 	time_period 	1
scalar Network700.node500 	number_of_messages 	62
scalar Network700.node500 	discovery_latency 	432
scalar Network700.node500 	number_of_desired_resources 	15
scalar Network700.node500 	query_homogenity_rate 	20
scalar Network700.node500 	qrecord_time 	5140
scalar Network700.node500 	discovery_resolution_rate 	100
scalar Network700.node0 	rate_of_requesters 	1
scalar Network700.node0 	number_of_resources 	38500
scalar Network700.node0 	time_period 	1
scalar Network700.node0 	number_of_messages 	49
scalar Network700.node0 	discovery_latency 	408
scalar Network700.node0 	number_of_desired_resources 	15
scalar Network700.node0 	query_homogenity_rate 	20
scalar Network700.node0 	qrecord_time 	5146
scalar Network700.node0 	discovery_resolution_rate 	100
scalar Network700.node80 	rate_of_requesters 	1
scalar Network700.node80 	number_of_resources 	38500
scalar Network700.node80 	time_period 	1
scalar Network700.node80 	number_of_messages 	79
scalar Network700.node80 	discovery_latency 	468
scalar Network700.node80 	number_of_desired_resources 	15
scalar Network700.node80 	query_homogenity_rate 	20
scalar Network700.node80 	qrecord_time 	5158
scalar Network700.node80 	discovery_resolution_rate 	100
scalar Network700.node630 	rate_of_requesters 	1
scalar Network700.node630 	number_of_resources 	38500
scalar Network700.node630 	time_period 	1
scalar Network700.node630 	number_of_messages 	79
scalar Network700.node630 	discovery_latency 	438
scalar Network700.node630 	number_of_desired_resources 	15
scalar Network700.node630 	query_homogenity_rate 	20
scalar Network700.node630 	qrecord_time 	5158
scalar Network700.node630 	discovery_resolution_rate 	100
scalar Network700.node450 	rate_of_requesters 	1
scalar Network700.node450 	number_of_resources 	38500
scalar Network700.node450 	time_period 	1
scalar Network700.node450 	number_of_messages 	48
scalar Network700.node450 	discovery_latency 	468
scalar Network700.node450 	number_of_desired_resources 	15
scalar Network700.node450 	query_homogenity_rate 	20
scalar Network700.node450 	qrecord_time 	5164
scalar Network700.node450 	discovery_resolution_rate 	100
scalar Network700.node140 	rate_of_requesters 	1
scalar Network700.node140 	number_of_resources 	38500
scalar Network700.node140 	time_period 	1
scalar Network700.node140 	number_of_messages 	73
scalar Network700.node140 	discovery_latency 	492
scalar Network700.node140 	number_of_desired_resources 	15
scalar Network700.node140 	query_homogenity_rate 	20
scalar Network700.node140 	qrecord_time 	5218
scalar Network700.node140 	discovery_resolution_rate 	100
scalar Network700.node460 	rate_of_requesters 	1
scalar Network700.node460 	number_of_resources 	38500
scalar Network700.node460 	time_period 	1
scalar Network700.node460 	number_of_messages 	58
scalar Network700.node460 	discovery_latency 	540
scalar Network700.node460 	number_of_desired_resources 	15
scalar Network700.node460 	query_homogenity_rate 	20
scalar Network700.node460 	qrecord_time 	5230
scalar Network700.node460 	discovery_resolution_rate 	100
scalar Network700.node200 	rate_of_requesters 	1
scalar Network700.node200 	number_of_resources 	38500
scalar Network700.node200 	time_period 	1
scalar Network700.node200 	number_of_messages 	79
scalar Network700.node200 	discovery_latency 	456
scalar Network700.node200 	number_of_desired_resources 	15
scalar Network700.node200 	query_homogenity_rate 	20
scalar Network700.node200 	qrecord_time 	5230
scalar Network700.node200 	discovery_resolution_rate 	100
scalar Network700.node550 	rate_of_requesters 	1
scalar Network700.node550 	number_of_resources 	38500
scalar Network700.node550 	time_period 	1
scalar Network700.node550 	number_of_messages 	50
scalar Network700.node550 	discovery_latency 	468
scalar Network700.node550 	number_of_desired_resources 	15
scalar Network700.node550 	query_homogenity_rate 	20
scalar Network700.node550 	qrecord_time 	5236
scalar Network700.node550 	discovery_resolution_rate 	100
scalar Network700.node280 	rate_of_requesters 	1
scalar Network700.node280 	number_of_resources 	38500
scalar Network700.node280 	time_period 	1
scalar Network700.node280 	number_of_messages 	69
scalar Network700.node280 	discovery_latency 	456
scalar Network700.node280 	number_of_desired_resources 	15
scalar Network700.node280 	query_homogenity_rate 	20
scalar Network700.node280 	qrecord_time 	5254
scalar Network700.node280 	discovery_resolution_rate 	100
scalar Network700.node20 	rate_of_requesters 	1
scalar Network700.node20 	number_of_resources 	38500
scalar Network700.node20 	time_period 	1
scalar Network700.node20 	number_of_messages 	82
scalar Network700.node20 	discovery_latency 	504
scalar Network700.node20 	number_of_desired_resources 	15
scalar Network700.node20 	query_homogenity_rate 	20
scalar Network700.node20 	qrecord_time 	5260
scalar Network700.node20 	discovery_resolution_rate 	100
scalar Network700.node640 	rate_of_requesters 	1
scalar Network700.node640 	number_of_resources 	38500
scalar Network700.node640 	time_period 	1
scalar Network700.node640 	number_of_messages 	52
scalar Network700.node640 	discovery_latency 	444
scalar Network700.node640 	number_of_desired_resources 	15
scalar Network700.node640 	query_homogenity_rate 	20
scalar Network700.node640 	qrecord_time 	5260
scalar Network700.node640 	discovery_resolution_rate 	100
scalar Network700.node240 	rate_of_requesters 	1
scalar Network700.node240 	number_of_resources 	38500
scalar Network700.node240 	time_period 	1
scalar Network700.node240 	number_of_messages 	77
scalar Network700.node240 	discovery_latency 	576
scalar Network700.node240 	number_of_desired_resources 	15
scalar Network700.node240 	query_homogenity_rate 	20
scalar Network700.node240 	qrecord_time 	5266
scalar Network700.node240 	discovery_resolution_rate 	100
scalar Network700.node40 	rate_of_requesters 	1
scalar Network700.node40 	number_of_resources 	38500
scalar Network700.node40 	time_period 	1
scalar Network700.node40 	number_of_messages 	65
scalar Network700.node40 	discovery_latency 	480
scalar Network700.node40 	number_of_desired_resources 	15
scalar Network700.node40 	query_homogenity_rate 	20
scalar Network700.node40 	qrecord_time 	5272
scalar Network700.node40 	discovery_resolution_rate 	100
scalar Network700.node100 	rate_of_requesters 	1
scalar Network700.node100 	number_of_resources 	38500
scalar Network700.node100 	time_period 	1
scalar Network700.node100 	number_of_messages 	63
scalar Network700.node100 	discovery_latency 	540
scalar Network700.node100 	number_of_desired_resources 	15
scalar Network700.node100 	query_homogenity_rate 	20
scalar Network700.node100 	qrecord_time 	5272
scalar Network700.node100 	discovery_resolution_rate 	100
scalar Network700.node170 	rate_of_requesters 	1
scalar Network700.node170 	number_of_resources 	38500
scalar Network700.node170 	time_period 	1
scalar Network700.node170 	number_of_messages 	54
scalar Network700.node170 	discovery_latency 	558
scalar Network700.node170 	number_of_desired_resources 	15
scalar Network700.node170 	query_homogenity_rate 	20
scalar Network700.node170 	qrecord_time 	5272
scalar Network700.node170 	discovery_resolution_rate 	100
scalar Network700.node540 	rate_of_requesters 	1
scalar Network700.node540 	number_of_resources 	38500
scalar Network700.node540 	time_period 	1
scalar Network700.node540 	number_of_messages 	101
scalar Network700.node540 	discovery_latency 	516
scalar Network700.node540 	number_of_desired_resources 	15
scalar Network700.node540 	query_homogenity_rate 	20
scalar Network700.node540 	qrecord_time 	5272
scalar Network700.node540 	discovery_resolution_rate 	100
scalar Network700.node160 	rate_of_requesters 	1
scalar Network700.node160 	number_of_resources 	38500
scalar Network700.node160 	time_period 	1
scalar Network700.node160 	number_of_messages 	61
scalar Network700.node160 	discovery_latency 	504
scalar Network700.node160 	number_of_desired_resources 	15
scalar Network700.node160 	query_homogenity_rate 	20
scalar Network700.node160 	qrecord_time 	5272
scalar Network700.node160 	discovery_resolution_rate 	100
scalar Network700.node660 	rate_of_requesters 	1
scalar Network700.node660 	number_of_resources 	38500
scalar Network700.node660 	time_period 	1
scalar Network700.node660 	number_of_messages 	89
scalar Network700.node660 	discovery_latency 	576
scalar Network700.node660 	number_of_desired_resources 	15
scalar Network700.node660 	query_homogenity_rate 	20
scalar Network700.node660 	qrecord_time 	5284
scalar Network700.node660 	discovery_resolution_rate 	100
scalar Network700.node340 	rate_of_requesters 	1
scalar Network700.node340 	number_of_resources 	38500
scalar Network700.node340 	time_period 	1
scalar Network700.node340 	number_of_messages 	78
scalar Network700.node340 	discovery_latency 	498
scalar Network700.node340 	number_of_desired_resources 	15
scalar Network700.node340 	query_homogenity_rate 	20
scalar Network700.node340 	qrecord_time 	5290
scalar Network700.node340 	discovery_resolution_rate 	100
scalar Network700.node250 	rate_of_requesters 	1
scalar Network700.node250 	number_of_resources 	38500
scalar Network700.node250 	time_period 	1
scalar Network700.node250 	number_of_messages 	49
scalar Network700.node250 	discovery_latency 	588
scalar Network700.node250 	number_of_desired_resources 	15
scalar Network700.node250 	query_homogenity_rate 	20
scalar Network700.node250 	qrecord_time 	5296
scalar Network700.node250 	discovery_resolution_rate 	100
scalar Network700.node520 	rate_of_requesters 	1
scalar Network700.node520 	number_of_resources 	38500
scalar Network700.node520 	time_period 	1
scalar Network700.node520 	number_of_messages 	73
scalar Network700.node520 	discovery_latency 	504
scalar Network700.node520 	number_of_desired_resources 	15
scalar Network700.node520 	query_homogenity_rate 	20
scalar Network700.node520 	qrecord_time 	5296
scalar Network700.node520 	discovery_resolution_rate 	100
scalar Network700.node190 	rate_of_requesters 	1
scalar Network700.node190 	number_of_resources 	38500
scalar Network700.node190 	time_period 	1
scalar Network700.node190 	number_of_messages 	73
scalar Network700.node190 	discovery_latency 	588
scalar Network700.node190 	number_of_desired_resources 	15
scalar Network700.node190 	query_homogenity_rate 	20
scalar Network700.node190 	qrecord_time 	5326
scalar Network700.node190 	discovery_resolution_rate 	100
scalar Network700.node470 	rate_of_requesters 	1
scalar Network700.node470 	number_of_resources 	38500
scalar Network700.node470 	time_period 	1
scalar Network700.node470 	number_of_messages 	98
scalar Network700.node470 	discovery_latency 	588
scalar Network700.node470 	number_of_desired_resources 	15
scalar Network700.node470 	query_homogenity_rate 	20
scalar Network700.node470 	qrecord_time 	5326
scalar Network700.node470 	discovery_resolution_rate 	100
scalar Network700.node560 	rate_of_requesters 	1
scalar Network700.node560 	number_of_resources 	38500
scalar Network700.node560 	time_period 	1
scalar Network700.node560 	number_of_messages 	82
scalar Network700.node560 	discovery_latency 	672
scalar Network700.node560 	number_of_desired_resources 	15
scalar Network700.node560 	query_homogenity_rate 	20
scalar Network700.node560 	qrecord_time 	5362
scalar Network700.node560 	discovery_resolution_rate 	100
scalar Network700.node300 	rate_of_requesters 	1
scalar Network700.node300 	number_of_resources 	38500
scalar Network700.node300 	time_period 	1
scalar Network700.node300 	number_of_messages 	126
scalar Network700.node300 	discovery_latency 	672
scalar Network700.node300 	number_of_desired_resources 	15
scalar Network700.node300 	query_homogenity_rate 	20
scalar Network700.node300 	qrecord_time 	5380
scalar Network700.node300 	discovery_resolution_rate 	100
scalar Network700.node490 	rate_of_requesters 	1
scalar Network700.node490 	number_of_resources 	38500
scalar Network700.node490 	time_period 	1
scalar Network700.node490 	number_of_messages 	115
scalar Network700.node490 	discovery_latency 	612
scalar Network700.node490 	number_of_desired_resources 	15
scalar Network700.node490 	query_homogenity_rate 	20
scalar Network700.node490 	qrecord_time 	5380
scalar Network700.node490 	discovery_resolution_rate 	100
scalar Network700.node120 	rate_of_requesters 	1
scalar Network700.node120 	number_of_resources 	38500
scalar Network700.node120 	time_period 	1
scalar Network700.node120 	number_of_messages 	62
scalar Network700.node120 	discovery_latency 	696
scalar Network700.node120 	number_of_desired_resources 	15
scalar Network700.node120 	query_homogenity_rate 	20
scalar Network700.node120 	qrecord_time 	5386
scalar Network700.node120 	discovery_resolution_rate 	100
scalar Network700.node370 	rate_of_requesters 	1
scalar Network700.node370 	number_of_resources 	38500
scalar Network700.node370 	time_period 	1
scalar Network700.node370 	number_of_messages 	84
scalar Network700.node370 	discovery_latency 	618
scalar Network700.node370 	number_of_desired_resources 	15
scalar Network700.node370 	query_homogenity_rate 	20
scalar Network700.node370 	qrecord_time 	5392
scalar Network700.node370 	discovery_resolution_rate 	100
scalar Network700.node320 	rate_of_requesters 	1
scalar Network700.node320 	number_of_resources 	38500
scalar Network700.node320 	time_period 	1
scalar Network700.node320 	number_of_messages 	59
scalar Network700.node320 	discovery_latency 	666
scalar Network700.node320 	number_of_desired_resources 	15
scalar Network700.node320 	query_homogenity_rate 	20
scalar Network700.node320 	qrecord_time 	5416
scalar Network700.node320 	discovery_resolution_rate 	100
scalar Network700.node30 	rate_of_requesters 	1
scalar Network700.node30 	number_of_resources 	38500
scalar Network700.node30 	time_period 	1
scalar Network700.node30 	number_of_messages 	91
scalar Network700.node30 	discovery_latency 	588
scalar Network700.node30 	number_of_desired_resources 	15
scalar Network700.node30 	query_homogenity_rate 	20
scalar Network700.node30 	qrecord_time 	5440
scalar Network700.node30 	discovery_resolution_rate 	100
scalar Network700.node690 	rate_of_requesters 	1
scalar Network700.node690 	number_of_resources 	38500
scalar Network700.node690 	time_period 	1
scalar Network700.node690 	number_of_messages 	95
scalar Network700.node690 	discovery_latency 	756
scalar Network700.node690 	number_of_desired_resources 	15
scalar Network700.node690 	query_homogenity_rate 	20
scalar Network700.node690 	qrecord_time 	5464
scalar Network700.node690 	discovery_resolution_rate 	100
scalar Network700.node290 	rate_of_requesters 	1
scalar Network700.node290 	number_of_resources 	38500
scalar Network700.node290 	time_period 	1
scalar Network700.node290 	number_of_messages 	87
scalar Network700.node290 	discovery_latency 	684
scalar Network700.node290 	number_of_desired_resources 	15
scalar Network700.node290 	query_homogenity_rate 	20
scalar Network700.node290 	qrecord_time 	5476
scalar Network700.node290 	discovery_resolution_rate 	100
scalar Network700.node260 	rate_of_requesters 	1
scalar Network700.node260 	number_of_resources 	38500
scalar Network700.node260 	time_period 	1
scalar Network700.node260 	number_of_messages 	87
scalar Network700.node260 	discovery_latency 	678
scalar Network700.node260 	number_of_desired_resources 	15
scalar Network700.node260 	query_homogenity_rate 	20
scalar Network700.node260 	qrecord_time 	5488
scalar Network700.node260 	discovery_resolution_rate 	100
scalar Network700.node410 	rate_of_requesters 	1
scalar Network700.node410 	number_of_resources 	38500
scalar Network700.node410 	time_period 	1
scalar Network700.node410 	number_of_messages 	88
scalar Network700.node410 	discovery_latency 	768
scalar Network700.node410 	number_of_desired_resources 	15
scalar Network700.node410 	query_homogenity_rate 	20
scalar Network700.node410 	qrecord_time 	5488
scalar Network700.node410 	discovery_resolution_rate 	100
scalar Network700.node380 	rate_of_requesters 	1
scalar Network700.node380 	number_of_resources 	38500
scalar Network700.node380 	time_period 	1
scalar Network700.node380 	number_of_messages 	90
scalar Network700.node380 	discovery_latency 	762
scalar Network700.node380 	number_of_desired_resources 	15
scalar Network700.node380 	query_homogenity_rate 	20
scalar Network700.node380 	qrecord_time 	5506
scalar Network700.node380 	discovery_resolution_rate 	100
scalar Network700.node600 	rate_of_requesters 	1
scalar Network700.node600 	number_of_resources 	38500
scalar Network700.node600 	time_period 	1
scalar Network700.node600 	number_of_messages 	120
scalar Network700.node600 	discovery_latency 	750
scalar Network700.node600 	number_of_desired_resources 	15
scalar Network700.node600 	query_homogenity_rate 	20
scalar Network700.node600 	qrecord_time 	5518
scalar Network700.node600 	discovery_resolution_rate 	100
scalar Network700.node360 	rate_of_requesters 	1
scalar Network700.node360 	number_of_resources 	38500
scalar Network700.node360 	time_period 	1
scalar Network700.node360 	number_of_messages 	91
scalar Network700.node360 	discovery_latency 	762
scalar Network700.node360 	number_of_desired_resources 	15
scalar Network700.node360 	query_homogenity_rate 	20
scalar Network700.node360 	qrecord_time 	5518
scalar Network700.node360 	discovery_resolution_rate 	100
scalar Network700.node510 	rate_of_requesters 	1
scalar Network700.node510 	number_of_resources 	38500
scalar Network700.node510 	time_period 	1
scalar Network700.node510 	number_of_messages 	98
scalar Network700.node510 	discovery_latency 	786
scalar Network700.node510 	number_of_desired_resources 	15
scalar Network700.node510 	query_homogenity_rate 	20
scalar Network700.node510 	qrecord_time 	5536
scalar Network700.node510 	discovery_resolution_rate 	100
scalar Network700.node580 	rate_of_requesters 	1
scalar Network700.node580 	number_of_resources 	38500
scalar Network700.node580 	time_period 	1
scalar Network700.node580 	number_of_messages 	103
scalar Network700.node580 	discovery_latency 	786
scalar Network700.node580 	number_of_desired_resources 	15
scalar Network700.node580 	query_homogenity_rate 	20
scalar Network700.node580 	qrecord_time 	5542
scalar Network700.node580 	discovery_resolution_rate 	100
scalar Network700.node110 	rate_of_requesters 	1
scalar Network700.node110 	number_of_resources 	38500
scalar Network700.node110 	time_period 	1
scalar Network700.node110 	number_of_messages 	103
scalar Network700.node110 	discovery_latency 	840
scalar Network700.node110 	number_of_desired_resources 	15
scalar Network700.node110 	query_homogenity_rate 	20
scalar Network700.node110 	qrecord_time 	5578
scalar Network700.node110 	discovery_resolution_rate 	100
scalar Network700.node610 	rate_of_requesters 	1
scalar Network700.node610 	number_of_resources 	38500
scalar Network700.node610 	time_period 	1
scalar Network700.node610 	number_of_messages 	92
scalar Network700.node610 	discovery_latency 	846
scalar Network700.node610 	number_of_desired_resources 	15
scalar Network700.node610 	query_homogenity_rate 	20
scalar Network700.node610 	qrecord_time 	5590
scalar Network700.node610 	discovery_resolution_rate 	100
scalar Network700.node330 	rate_of_requesters 	1
scalar Network700.node330 	number_of_resources 	38500
scalar Network700.node330 	time_period 	1
scalar Network700.node330 	number_of_messages 	161
scalar Network700.node330 	discovery_latency 	834
scalar Network700.node330 	number_of_desired_resources 	15
scalar Network700.node330 	query_homogenity_rate 	20
scalar Network700.node330 	qrecord_time 	5644
scalar Network700.node330 	discovery_resolution_rate 	100
scalar Network700.node350 	rate_of_requesters 	1
scalar Network700.node350 	number_of_resources 	38500
scalar Network700.node350 	time_period 	1
scalar Network700.node350 	number_of_messages 	101
scalar Network700.node350 	discovery_latency 	942
scalar Network700.node350 	number_of_desired_resources 	15
scalar Network700.node350 	query_homogenity_rate 	20
scalar Network700.node350 	qrecord_time 	5650
scalar Network700.node350 	discovery_resolution_rate 	100
scalar Network700.node620 	rate_of_requesters 	1
scalar Network700.node620 	number_of_resources 	38500
scalar Network700.node620 	time_period 	1
scalar Network700.node620 	number_of_messages 	113
scalar Network700.node620 	discovery_latency 	924
scalar Network700.node620 	number_of_desired_resources 	15
scalar Network700.node620 	query_homogenity_rate 	20
scalar Network700.node620 	qrecord_time 	5656
scalar Network700.node620 	discovery_resolution_rate 	100
scalar Network700.node680 	rate_of_requesters 	1
scalar Network700.node680 	number_of_resources 	38500
scalar Network700.node680 	time_period 	1
scalar Network700.node680 	number_of_messages 	143
scalar Network700.node680 	discovery_latency 	924
scalar Network700.node680 	number_of_desired_resources 	15
scalar Network700.node680 	query_homogenity_rate 	20
scalar Network700.node680 	qrecord_time 	5656
scalar Network700.node680 	discovery_resolution_rate 	100
scalar Network700.node670 	rate_of_requesters 	1
scalar Network700.node670 	number_of_resources 	38500
scalar Network700.node670 	time_period 	1
scalar Network700.node670 	number_of_messages 	144
scalar Network700.node670 	discovery_latency 	996
scalar Network700.node670 	number_of_desired_resources 	15
scalar Network700.node670 	query_homogenity_rate 	20
scalar Network700.node670 	qrecord_time 	5716
scalar Network700.node670 	discovery_resolution_rate 	100
scalar Network700.node390 	rate_of_requesters 	1
scalar Network700.node390 	number_of_resources 	38500
scalar Network700.node390 	time_period 	1
scalar Network700.node390 	number_of_messages 	131
scalar Network700.node390 	discovery_latency 	1116
scalar Network700.node390 	number_of_desired_resources 	15
scalar Network700.node390 	query_homogenity_rate 	20
scalar Network700.node390 	qrecord_time 	5866
scalar Network700.node390 	discovery_resolution_rate 	100
scalar Network700.node120 	rate_of_requesters 	1
scalar Network700.node120 	number_of_resources 	38500
scalar Network700.node120 	time_period 	2
scalar Network700.node120 	number_of_messages 	31
scalar Network700.node120 	discovery_latency 	132
scalar Network700.node120 	number_of_desired_resources 	15
scalar Network700.node120 	query_homogenity_rate 	20
scalar Network700.node120 	qrecord_time 	6822
scalar Network700.node120 	discovery_resolution_rate 	100
scalar Network700.node480 	rate_of_requesters 	1
scalar Network700.node480 	number_of_resources 	38500
scalar Network700.node480 	time_period 	2
scalar Network700.node480 	number_of_messages 	45
scalar Network700.node480 	discovery_latency 	192
scalar Network700.node480 	number_of_desired_resources 	15
scalar Network700.node480 	query_homogenity_rate 	20
scalar Network700.node480 	qrecord_time 	6834
scalar Network700.node480 	discovery_resolution_rate 	100
scalar Network700.node60 	rate_of_requesters 	1
scalar Network700.node60 	number_of_resources 	38500
scalar Network700.node60 	time_period 	2
scalar Network700.node60 	number_of_messages 	31
scalar Network700.node60 	discovery_latency 	132
scalar Network700.node60 	number_of_desired_resources 	15
scalar Network700.node60 	query_homogenity_rate 	20
scalar Network700.node60 	qrecord_time 	6840
scalar Network700.node60 	discovery_resolution_rate 	100
scalar Network700.node190 	rate_of_requesters 	1
scalar Network700.node190 	number_of_resources 	38500
scalar Network700.node190 	time_period 	2
scalar Network700.node190 	number_of_messages 	28
scalar Network700.node190 	discovery_latency 	108
scalar Network700.node190 	number_of_desired_resources 	15
scalar Network700.node190 	query_homogenity_rate 	20
scalar Network700.node190 	qrecord_time 	6846
scalar Network700.node190 	discovery_resolution_rate 	100
scalar Network700.node50 	rate_of_requesters 	1
scalar Network700.node50 	number_of_resources 	38500
scalar Network700.node50 	time_period 	2
scalar Network700.node50 	number_of_messages 	33
scalar Network700.node50 	discovery_latency 	156
scalar Network700.node50 	number_of_desired_resources 	15
scalar Network700.node50 	query_homogenity_rate 	20
scalar Network700.node50 	qrecord_time 	6846
scalar Network700.node50 	discovery_resolution_rate 	100
scalar Network700.node240 	rate_of_requesters 	1
scalar Network700.node240 	number_of_resources 	38500
scalar Network700.node240 	time_period 	2
scalar Network700.node240 	number_of_messages 	33
scalar Network700.node240 	discovery_latency 	156
scalar Network700.node240 	number_of_desired_resources 	15
scalar Network700.node240 	query_homogenity_rate 	20
scalar Network700.node240 	qrecord_time 	6846
scalar Network700.node240 	discovery_resolution_rate 	100
scalar Network700.node400 	rate_of_requesters 	1
scalar Network700.node400 	number_of_resources 	38500
scalar Network700.node400 	time_period 	2
scalar Network700.node400 	number_of_messages 	45
scalar Network700.node400 	discovery_latency 	180
scalar Network700.node400 	number_of_desired_resources 	15
scalar Network700.node400 	query_homogenity_rate 	20
scalar Network700.node400 	qrecord_time 	6846
scalar Network700.node400 	discovery_resolution_rate 	100
scalar Network700.node140 	rate_of_requesters 	1
scalar Network700.node140 	number_of_resources 	38500
scalar Network700.node140 	time_period 	2
scalar Network700.node140 	number_of_messages 	34
scalar Network700.node140 	discovery_latency 	132
scalar Network700.node140 	number_of_desired_resources 	15
scalar Network700.node140 	query_homogenity_rate 	20
scalar Network700.node140 	qrecord_time 	6858
scalar Network700.node140 	discovery_resolution_rate 	100
scalar Network700.node650 	rate_of_requesters 	1
scalar Network700.node650 	number_of_resources 	38500
scalar Network700.node650 	time_period 	2
scalar Network700.node650 	number_of_messages 	38
scalar Network700.node650 	discovery_latency 	168
scalar Network700.node650 	number_of_desired_resources 	15
scalar Network700.node650 	query_homogenity_rate 	20
scalar Network700.node650 	qrecord_time 	6858
scalar Network700.node650 	discovery_resolution_rate 	100
scalar Network700.node250 	rate_of_requesters 	1
scalar Network700.node250 	number_of_resources 	38500
scalar Network700.node250 	time_period 	2
scalar Network700.node250 	number_of_messages 	25
scalar Network700.node250 	discovery_latency 	168
scalar Network700.node250 	number_of_desired_resources 	15
scalar Network700.node250 	query_homogenity_rate 	20
scalar Network700.node250 	qrecord_time 	6876
scalar Network700.node250 	discovery_resolution_rate 	100
scalar Network700.node590 	rate_of_requesters 	1
scalar Network700.node590 	number_of_resources 	38500
scalar Network700.node590 	time_period 	2
scalar Network700.node590 	number_of_messages 	39
scalar Network700.node590 	discovery_latency 	168
scalar Network700.node590 	number_of_desired_resources 	15
scalar Network700.node590 	query_homogenity_rate 	20
scalar Network700.node590 	qrecord_time 	6876
scalar Network700.node590 	discovery_resolution_rate 	100
scalar Network700.node440 	rate_of_requesters 	1
scalar Network700.node440 	number_of_resources 	38500
scalar Network700.node440 	time_period 	2
scalar Network700.node440 	number_of_messages 	45
scalar Network700.node440 	discovery_latency 	228
scalar Network700.node440 	number_of_desired_resources 	15
scalar Network700.node440 	query_homogenity_rate 	20
scalar Network700.node440 	qrecord_time 	6876
scalar Network700.node440 	discovery_resolution_rate 	100
scalar Network700.node660 	rate_of_requesters 	1
scalar Network700.node660 	number_of_resources 	38500
scalar Network700.node660 	time_period 	2
scalar Network700.node660 	number_of_messages 	49
scalar Network700.node660 	discovery_latency 	204
scalar Network700.node660 	number_of_desired_resources 	15
scalar Network700.node660 	query_homogenity_rate 	20
scalar Network700.node660 	qrecord_time 	6912
scalar Network700.node660 	discovery_resolution_rate 	100
scalar Network700.node530 	rate_of_requesters 	1
scalar Network700.node530 	number_of_resources 	38500
scalar Network700.node530 	time_period 	2
scalar Network700.node530 	number_of_messages 	31
scalar Network700.node530 	discovery_latency 	168
scalar Network700.node530 	number_of_desired_resources 	15
scalar Network700.node530 	query_homogenity_rate 	20
scalar Network700.node530 	qrecord_time 	6918
scalar Network700.node530 	discovery_resolution_rate 	100
scalar Network700.node690 	rate_of_requesters 	1
scalar Network700.node690 	number_of_resources 	38500
scalar Network700.node690 	time_period 	2
scalar Network700.node690 	number_of_messages 	43
scalar Network700.node690 	discovery_latency 	216
scalar Network700.node690 	number_of_desired_resources 	15
scalar Network700.node690 	query_homogenity_rate 	20
scalar Network700.node690 	qrecord_time 	6924
scalar Network700.node690 	discovery_resolution_rate 	100
scalar Network700.node270 	rate_of_requesters 	1
scalar Network700.node270 	number_of_resources 	38500
scalar Network700.node270 	time_period 	2
scalar Network700.node270 	number_of_messages 	23
scalar Network700.node270 	discovery_latency 	180
scalar Network700.node270 	number_of_desired_resources 	15
scalar Network700.node270 	query_homogenity_rate 	20
scalar Network700.node270 	qrecord_time 	6930
scalar Network700.node270 	discovery_resolution_rate 	100
scalar Network700.node430 	rate_of_requesters 	1
scalar Network700.node430 	number_of_resources 	38500
scalar Network700.node430 	time_period 	2
scalar Network700.node430 	number_of_messages 	40
scalar Network700.node430 	discovery_latency 	240
scalar Network700.node430 	number_of_desired_resources 	15
scalar Network700.node430 	query_homogenity_rate 	20
scalar Network700.node430 	qrecord_time 	6930
scalar Network700.node430 	discovery_resolution_rate 	100
scalar Network700.node80 	rate_of_requesters 	1
scalar Network700.node80 	number_of_resources 	38500
scalar Network700.node80 	time_period 	2
scalar Network700.node80 	number_of_messages 	62
scalar Network700.node80 	discovery_latency 	240
scalar Network700.node80 	number_of_desired_resources 	15
scalar Network700.node80 	query_homogenity_rate 	20
scalar Network700.node80 	qrecord_time 	6930
scalar Network700.node80 	discovery_resolution_rate 	100
scalar Network700.node130 	rate_of_requesters 	1
scalar Network700.node130 	number_of_resources 	38500
scalar Network700.node130 	time_period 	2
scalar Network700.node130 	number_of_messages 	60
scalar Network700.node130 	discovery_latency 	240
scalar Network700.node130 	number_of_desired_resources 	15
scalar Network700.node130 	query_homogenity_rate 	20
scalar Network700.node130 	qrecord_time 	6936
scalar Network700.node130 	discovery_resolution_rate 	100
scalar Network700.node310 	rate_of_requesters 	1
scalar Network700.node310 	number_of_resources 	38500
scalar Network700.node310 	time_period 	2
scalar Network700.node310 	number_of_messages 	54
scalar Network700.node310 	discovery_latency 	252
scalar Network700.node310 	number_of_desired_resources 	15
scalar Network700.node310 	query_homogenity_rate 	20
scalar Network700.node310 	qrecord_time 	6936
scalar Network700.node310 	discovery_resolution_rate 	100
scalar Network700.node460 	rate_of_requesters 	1
scalar Network700.node460 	number_of_resources 	38500
scalar Network700.node460 	time_period 	2
scalar Network700.node460 	number_of_messages 	34
scalar Network700.node460 	discovery_latency 	252
scalar Network700.node460 	number_of_desired_resources 	15
scalar Network700.node460 	query_homogenity_rate 	20
scalar Network700.node460 	qrecord_time 	6942
scalar Network700.node460 	discovery_resolution_rate 	100
scalar Network700.node550 	rate_of_requesters 	1
scalar Network700.node550 	number_of_resources 	38500
scalar Network700.node550 	time_period 	2
scalar Network700.node550 	number_of_messages 	24
scalar Network700.node550 	discovery_latency 	180
scalar Network700.node550 	number_of_desired_resources 	15
scalar Network700.node550 	query_homogenity_rate 	20
scalar Network700.node550 	qrecord_time 	6948
scalar Network700.node550 	discovery_resolution_rate 	100
scalar Network700.node500 	rate_of_requesters 	1
scalar Network700.node500 	number_of_resources 	38500
scalar Network700.node500 	time_period 	2
scalar Network700.node500 	number_of_messages 	45
scalar Network700.node500 	discovery_latency 	252
scalar Network700.node500 	number_of_desired_resources 	15
scalar Network700.node500 	query_homogenity_rate 	20
scalar Network700.node500 	qrecord_time 	6960
scalar Network700.node500 	discovery_resolution_rate 	100
scalar Network700.node210 	rate_of_requesters 	1
scalar Network700.node210 	number_of_resources 	38500
scalar Network700.node210 	time_period 	2
scalar Network700.node210 	number_of_messages 	56
scalar Network700.node210 	discovery_latency 	276
scalar Network700.node210 	number_of_desired_resources 	15
scalar Network700.node210 	query_homogenity_rate 	20
scalar Network700.node210 	qrecord_time 	6966
scalar Network700.node210 	discovery_resolution_rate 	100
scalar Network700.node160 	rate_of_requesters 	1
scalar Network700.node160 	number_of_resources 	38500
scalar Network700.node160 	time_period 	2
scalar Network700.node160 	number_of_messages 	35
scalar Network700.node160 	discovery_latency 	204
scalar Network700.node160 	number_of_desired_resources 	15
scalar Network700.node160 	query_homogenity_rate 	20
scalar Network700.node160 	qrecord_time 	6972
scalar Network700.node160 	discovery_resolution_rate 	100
scalar Network700.node100 	rate_of_requesters 	1
scalar Network700.node100 	number_of_resources 	38500
scalar Network700.node100 	time_period 	2
scalar Network700.node100 	number_of_messages 	35
scalar Network700.node100 	discovery_latency 	240
scalar Network700.node100 	number_of_desired_resources 	15
scalar Network700.node100 	query_homogenity_rate 	20
scalar Network700.node100 	qrecord_time 	6972
scalar Network700.node100 	discovery_resolution_rate 	100
scalar Network700.node410 	rate_of_requesters 	1
scalar Network700.node410 	number_of_resources 	38500
scalar Network700.node410 	time_period 	2
scalar Network700.node410 	number_of_messages 	52
scalar Network700.node410 	discovery_latency 	252
scalar Network700.node410 	number_of_desired_resources 	15
scalar Network700.node410 	query_homogenity_rate 	20
scalar Network700.node410 	qrecord_time 	6972
scalar Network700.node410 	discovery_resolution_rate 	100
scalar Network700.node570 	rate_of_requesters 	1
scalar Network700.node570 	number_of_resources 	38500
scalar Network700.node570 	time_period 	2
scalar Network700.node570 	number_of_messages 	37
scalar Network700.node570 	discovery_latency 	264
scalar Network700.node570 	number_of_desired_resources 	15
scalar Network700.node570 	query_homogenity_rate 	20
scalar Network700.node570 	qrecord_time 	6984
scalar Network700.node570 	discovery_resolution_rate 	100
scalar Network700.node470 	rate_of_requesters 	1
scalar Network700.node470 	number_of_resources 	38500
scalar Network700.node470 	time_period 	2
scalar Network700.node470 	number_of_messages 	40
scalar Network700.node470 	discovery_latency 	264
scalar Network700.node470 	number_of_desired_resources 	15
scalar Network700.node470 	query_homogenity_rate 	20
scalar Network700.node470 	qrecord_time 	7002
scalar Network700.node470 	discovery_resolution_rate 	100
scalar Network700.node450 	rate_of_requesters 	1
scalar Network700.node450 	number_of_resources 	38500
scalar Network700.node450 	time_period 	2
scalar Network700.node450 	number_of_messages 	40
scalar Network700.node450 	discovery_latency 	312
scalar Network700.node450 	number_of_desired_resources 	15
scalar Network700.node450 	query_homogenity_rate 	20
scalar Network700.node450 	qrecord_time 	7008
scalar Network700.node450 	discovery_resolution_rate 	100
scalar Network700.node350 	rate_of_requesters 	1
scalar Network700.node350 	number_of_resources 	38500
scalar Network700.node350 	time_period 	2
scalar Network700.node350 	number_of_messages 	43
scalar Network700.node350 	discovery_latency 	312
scalar Network700.node350 	number_of_desired_resources 	15
scalar Network700.node350 	query_homogenity_rate 	20
scalar Network700.node350 	qrecord_time 	7020
scalar Network700.node350 	discovery_resolution_rate 	100
scalar Network700.node420 	rate_of_requesters 	1
scalar Network700.node420 	number_of_resources 	38500
scalar Network700.node420 	time_period 	2
scalar Network700.node420 	number_of_messages 	37
scalar Network700.node420 	discovery_latency 	300
scalar Network700.node420 	number_of_desired_resources 	15
scalar Network700.node420 	query_homogenity_rate 	20
scalar Network700.node420 	qrecord_time 	7026
scalar Network700.node420 	discovery_resolution_rate 	100
scalar Network700.node20 	rate_of_requesters 	1
scalar Network700.node20 	number_of_resources 	38500
scalar Network700.node20 	time_period 	2
scalar Network700.node20 	number_of_messages 	41
scalar Network700.node20 	discovery_latency 	276
scalar Network700.node20 	number_of_desired_resources 	15
scalar Network700.node20 	query_homogenity_rate 	20
scalar Network700.node20 	qrecord_time 	7032
scalar Network700.node20 	discovery_resolution_rate 	100
scalar Network700.node540 	rate_of_requesters 	1
scalar Network700.node540 	number_of_resources 	38500
scalar Network700.node540 	time_period 	2
scalar Network700.node540 	number_of_messages 	61
scalar Network700.node540 	discovery_latency 	276
scalar Network700.node540 	number_of_desired_resources 	15
scalar Network700.node540 	query_homogenity_rate 	20
scalar Network700.node540 	qrecord_time 	7032
scalar Network700.node540 	discovery_resolution_rate 	100
scalar Network700.node180 	rate_of_requesters 	1
scalar Network700.node180 	number_of_resources 	38500
scalar Network700.node180 	time_period 	2
scalar Network700.node180 	number_of_messages 	57
scalar Network700.node180 	discovery_latency 	300
scalar Network700.node180 	number_of_desired_resources 	15
scalar Network700.node180 	query_homogenity_rate 	20
scalar Network700.node180 	qrecord_time 	7032
scalar Network700.node180 	discovery_resolution_rate 	100
scalar Network700.node510 	rate_of_requesters 	1
scalar Network700.node510 	number_of_resources 	38500
scalar Network700.node510 	time_period 	2
scalar Network700.node510 	number_of_messages 	57
scalar Network700.node510 	discovery_latency 	300
scalar Network700.node510 	number_of_desired_resources 	15
scalar Network700.node510 	query_homogenity_rate 	20
scalar Network700.node510 	qrecord_time 	7050
scalar Network700.node510 	discovery_resolution_rate 	100
scalar Network700.node610 	rate_of_requesters 	1
scalar Network700.node610 	number_of_resources 	38500
scalar Network700.node610 	time_period 	2
scalar Network700.node610 	number_of_messages 	39
scalar Network700.node610 	discovery_latency 	312
scalar Network700.node610 	number_of_desired_resources 	15
scalar Network700.node610 	query_homogenity_rate 	20
scalar Network700.node610 	qrecord_time 	7056
scalar Network700.node610 	discovery_resolution_rate 	100
scalar Network700.node290 	rate_of_requesters 	1
scalar Network700.node290 	number_of_resources 	38500
scalar Network700.node290 	time_period 	2
scalar Network700.node290 	number_of_messages 	59
scalar Network700.node290 	discovery_latency 	276
scalar Network700.node290 	number_of_desired_resources 	15
scalar Network700.node290 	query_homogenity_rate 	20
scalar Network700.node290 	qrecord_time 	7068
scalar Network700.node290 	discovery_resolution_rate 	100
scalar Network700.node520 	rate_of_requesters 	1
scalar Network700.node520 	number_of_resources 	38500
scalar Network700.node520 	time_period 	2
scalar Network700.node520 	number_of_messages 	67
scalar Network700.node520 	discovery_latency 	276
scalar Network700.node520 	number_of_desired_resources 	15
scalar Network700.node520 	query_homogenity_rate 	20
scalar Network700.node520 	qrecord_time 	7068
scalar Network700.node520 	discovery_resolution_rate 	100
scalar Network700.node150 	rate_of_requesters 	1
scalar Network700.node150 	number_of_resources 	38500
scalar Network700.node150 	time_period 	2
scalar Network700.node150 	number_of_messages 	34
scalar Network700.node150 	discovery_latency 	324
scalar Network700.node150 	number_of_desired_resources 	15
scalar Network700.node150 	query_homogenity_rate 	20
scalar Network700.node150 	qrecord_time 	7068
scalar Network700.node150 	discovery_resolution_rate 	100
scalar Network700.node90 	rate_of_requesters 	1
scalar Network700.node90 	number_of_resources 	38500
scalar Network700.node90 	time_period 	2
scalar Network700.node90 	number_of_messages 	54
scalar Network700.node90 	discovery_latency 	360
scalar Network700.node90 	number_of_desired_resources 	15
scalar Network700.node90 	query_homogenity_rate 	20
scalar Network700.node90 	qrecord_time 	7068
scalar Network700.node90 	discovery_resolution_rate 	100
scalar Network700.node10 	rate_of_requesters 	1
scalar Network700.node10 	number_of_resources 	38500
scalar Network700.node10 	time_period 	2
scalar Network700.node10 	number_of_messages 	34
scalar Network700.node10 	discovery_latency 	336
scalar Network700.node10 	number_of_desired_resources 	15
scalar Network700.node10 	query_homogenity_rate 	20
scalar Network700.node10 	qrecord_time 	7074
scalar Network700.node10 	discovery_resolution_rate 	100
scalar Network700.node380 	rate_of_requesters 	1
scalar Network700.node380 	number_of_resources 	38500
scalar Network700.node380 	time_period 	2
scalar Network700.node380 	number_of_messages 	54
scalar Network700.node380 	discovery_latency 	336
scalar Network700.node380 	number_of_desired_resources 	15
scalar Network700.node380 	query_homogenity_rate 	20
scalar Network700.node380 	qrecord_time 	7080
scalar Network700.node380 	discovery_resolution_rate 	100
scalar Network700.node70 	rate_of_requesters 	1
scalar Network700.node70 	number_of_resources 	38500
scalar Network700.node70 	time_period 	2
scalar Network700.node70 	number_of_messages 	41
scalar Network700.node70 	discovery_latency 	336
scalar Network700.node70 	number_of_desired_resources 	15
scalar Network700.node70 	query_homogenity_rate 	20
scalar Network700.node70 	qrecord_time 	7092
scalar Network700.node70 	discovery_resolution_rate 	100
scalar Network700.node630 	rate_of_requesters 	1
scalar Network700.node630 	number_of_resources 	38500
scalar Network700.node630 	time_period 	2
scalar Network700.node630 	number_of_messages 	81
scalar Network700.node630 	discovery_latency 	372
scalar Network700.node630 	number_of_desired_resources 	15
scalar Network700.node630 	query_homogenity_rate 	20
scalar Network700.node630 	qrecord_time 	7092
scalar Network700.node630 	discovery_resolution_rate 	100
scalar Network700.node670 	rate_of_requesters 	1
scalar Network700.node670 	number_of_resources 	38500
scalar Network700.node670 	time_period 	2
scalar Network700.node670 	number_of_messages 	83
scalar Network700.node670 	discovery_latency 	372
scalar Network700.node670 	number_of_desired_resources 	15
scalar Network700.node670 	query_homogenity_rate 	20
scalar Network700.node670 	qrecord_time 	7092
scalar Network700.node670 	discovery_resolution_rate 	100
scalar Network700.node560 	rate_of_requesters 	1
scalar Network700.node560 	number_of_resources 	38500
scalar Network700.node560 	time_period 	2
scalar Network700.node560 	number_of_messages 	59
scalar Network700.node560 	discovery_latency 	432
scalar Network700.node560 	number_of_desired_resources 	15
scalar Network700.node560 	query_homogenity_rate 	20
scalar Network700.node560 	qrecord_time 	7122
scalar Network700.node560 	discovery_resolution_rate 	100
scalar Network700.node280 	rate_of_requesters 	1
scalar Network700.node280 	number_of_resources 	38500
scalar Network700.node280 	time_period 	2
scalar Network700.node280 	number_of_messages 	57
scalar Network700.node280 	discovery_latency 	396
scalar Network700.node280 	number_of_desired_resources 	15
scalar Network700.node280 	query_homogenity_rate 	20
scalar Network700.node280 	qrecord_time 	7194
scalar Network700.node280 	discovery_resolution_rate 	100
scalar Network700.node200 	rate_of_requesters 	1
scalar Network700.node200 	number_of_resources 	38500
scalar Network700.node200 	time_period 	2
scalar Network700.node200 	number_of_messages 	63
scalar Network700.node200 	discovery_latency 	420
scalar Network700.node200 	number_of_desired_resources 	15
scalar Network700.node200 	query_homogenity_rate 	20
scalar Network700.node200 	qrecord_time 	7194
scalar Network700.node200 	discovery_resolution_rate 	100
scalar Network700.node360 	rate_of_requesters 	1
scalar Network700.node360 	number_of_resources 	38500
scalar Network700.node360 	time_period 	2
scalar Network700.node360 	number_of_messages 	64
scalar Network700.node360 	discovery_latency 	438
scalar Network700.node360 	number_of_desired_resources 	15
scalar Network700.node360 	query_homogenity_rate 	20
scalar Network700.node360 	qrecord_time 	7194
scalar Network700.node360 	discovery_resolution_rate 	100
scalar Network700.node640 	rate_of_requesters 	1
scalar Network700.node640 	number_of_resources 	38500
scalar Network700.node640 	time_period 	2
scalar Network700.node640 	number_of_messages 	52
scalar Network700.node640 	discovery_latency 	396
scalar Network700.node640 	number_of_desired_resources 	15
scalar Network700.node640 	query_homogenity_rate 	20
scalar Network700.node640 	qrecord_time 	7212
scalar Network700.node640 	discovery_resolution_rate 	100
scalar Network700.node230 	rate_of_requesters 	1
scalar Network700.node230 	number_of_resources 	38500
scalar Network700.node230 	time_period 	2
scalar Network700.node230 	number_of_messages 	51
scalar Network700.node230 	discovery_latency 	498
scalar Network700.node230 	number_of_desired_resources 	15
scalar Network700.node230 	query_homogenity_rate 	20
scalar Network700.node230 	qrecord_time 	7212
scalar Network700.node230 	discovery_resolution_rate 	100
scalar Network700.node320 	rate_of_requesters 	1
scalar Network700.node320 	number_of_resources 	38500
scalar Network700.node320 	time_period 	2
scalar Network700.node320 	number_of_messages 	71
scalar Network700.node320 	discovery_latency 	480
scalar Network700.node320 	number_of_desired_resources 	15
scalar Network700.node320 	query_homogenity_rate 	20
scalar Network700.node320 	qrecord_time 	7230
scalar Network700.node320 	discovery_resolution_rate 	100
scalar Network700.node220 	rate_of_requesters 	1
scalar Network700.node220 	number_of_resources 	38500
scalar Network700.node220 	time_period 	2
scalar Network700.node220 	number_of_messages 	65
scalar Network700.node220 	discovery_latency 	474
scalar Network700.node220 	number_of_desired_resources 	15
scalar Network700.node220 	query_homogenity_rate 	20
scalar Network700.node220 	qrecord_time 	7248
scalar Network700.node220 	discovery_resolution_rate 	100
scalar Network700.node0 	rate_of_requesters 	1
scalar Network700.node0 	number_of_resources 	38500
scalar Network700.node0 	time_period 	2
scalar Network700.node0 	number_of_messages 	68
scalar Network700.node0 	discovery_latency 	510
scalar Network700.node0 	number_of_desired_resources 	15
scalar Network700.node0 	query_homogenity_rate 	20
scalar Network700.node0 	qrecord_time 	7248
scalar Network700.node0 	discovery_resolution_rate 	100
scalar Network700.node110 	rate_of_requesters 	1
scalar Network700.node110 	number_of_resources 	38500
scalar Network700.node110 	time_period 	2
scalar Network700.node110 	number_of_messages 	73
scalar Network700.node110 	discovery_latency 	510
scalar Network700.node110 	number_of_desired_resources 	15
scalar Network700.node110 	query_homogenity_rate 	20
scalar Network700.node110 	qrecord_time 	7248
scalar Network700.node110 	discovery_resolution_rate 	100
scalar Network700.node30 	rate_of_requesters 	1
scalar Network700.node30 	number_of_resources 	38500
scalar Network700.node30 	time_period 	2
scalar Network700.node30 	number_of_messages 	58
scalar Network700.node30 	discovery_latency 	408
scalar Network700.node30 	number_of_desired_resources 	15
scalar Network700.node30 	query_homogenity_rate 	20
scalar Network700.node30 	qrecord_time 	7260
scalar Network700.node30 	discovery_resolution_rate 	100
scalar Network700.node330 	rate_of_requesters 	1
scalar Network700.node330 	number_of_resources 	38500
scalar Network700.node330 	time_period 	2
scalar Network700.node330 	number_of_messages 	75
scalar Network700.node330 	discovery_latency 	456
scalar Network700.node330 	number_of_desired_resources 	15
scalar Network700.node330 	query_homogenity_rate 	20
scalar Network700.node330 	qrecord_time 	7266
scalar Network700.node330 	discovery_resolution_rate 	100
scalar Network700.node40 	rate_of_requesters 	1
scalar Network700.node40 	number_of_resources 	38500
scalar Network700.node40 	time_period 	2
scalar Network700.node40 	number_of_messages 	69
scalar Network700.node40 	discovery_latency 	498
scalar Network700.node40 	number_of_desired_resources 	15
scalar Network700.node40 	query_homogenity_rate 	20
scalar Network700.node40 	qrecord_time 	7290
scalar Network700.node40 	discovery_resolution_rate 	100
scalar Network700.node340 	rate_of_requesters 	1
scalar Network700.node340 	number_of_resources 	38500
scalar Network700.node340 	time_period 	2
scalar Network700.node340 	number_of_messages 	79
scalar Network700.node340 	discovery_latency 	498
scalar Network700.node340 	number_of_desired_resources 	15
scalar Network700.node340 	query_homogenity_rate 	20
scalar Network700.node340 	qrecord_time 	7290
scalar Network700.node340 	discovery_resolution_rate 	100
scalar Network700.node600 	rate_of_requesters 	1
scalar Network700.node600 	number_of_resources 	38500
scalar Network700.node600 	time_period 	2
scalar Network700.node600 	number_of_messages 	53
scalar Network700.node600 	discovery_latency 	546
scalar Network700.node600 	number_of_desired_resources 	15
scalar Network700.node600 	query_homogenity_rate 	20
scalar Network700.node600 	qrecord_time 	7314
scalar Network700.node600 	discovery_resolution_rate 	100
scalar Network700.node620 	rate_of_requesters 	1
scalar Network700.node620 	number_of_resources 	38500
scalar Network700.node620 	time_period 	2
scalar Network700.node620 	number_of_messages 	84
scalar Network700.node620 	discovery_latency 	606
scalar Network700.node620 	number_of_desired_resources 	15
scalar Network700.node620 	query_homogenity_rate 	20
scalar Network700.node620 	qrecord_time 	7338
scalar Network700.node620 	discovery_resolution_rate 	100
scalar Network700.node580 	rate_of_requesters 	1
scalar Network700.node580 	number_of_resources 	38500
scalar Network700.node580 	time_period 	2
scalar Network700.node580 	number_of_messages 	96
scalar Network700.node580 	discovery_latency 	588
scalar Network700.node580 	number_of_desired_resources 	15
scalar Network700.node580 	query_homogenity_rate 	20
scalar Network700.node580 	qrecord_time 	7344
scalar Network700.node580 	discovery_resolution_rate 	100
scalar Network700.node490 	rate_of_requesters 	1
scalar Network700.node490 	number_of_resources 	38500
scalar Network700.node490 	time_period 	2
scalar Network700.node490 	number_of_messages 	117
scalar Network700.node490 	discovery_latency 	612
scalar Network700.node490 	number_of_desired_resources 	15
scalar Network700.node490 	query_homogenity_rate 	20
scalar Network700.node490 	qrecord_time 	7380
scalar Network700.node490 	discovery_resolution_rate 	100
scalar Network700.node390 	rate_of_requesters 	1
scalar Network700.node390 	number_of_resources 	38500
scalar Network700.node390 	time_period 	2
scalar Network700.node390 	number_of_messages 	88
scalar Network700.node390 	discovery_latency 	636
scalar Network700.node390 	number_of_desired_resources 	15
scalar Network700.node390 	query_homogenity_rate 	20
scalar Network700.node390 	qrecord_time 	7386
scalar Network700.node390 	discovery_resolution_rate 	100
scalar Network700.node260 	rate_of_requesters 	1
scalar Network700.node260 	number_of_resources 	38500
scalar Network700.node260 	time_period 	2
scalar Network700.node260 	number_of_messages 	84
scalar Network700.node260 	discovery_latency 	594
scalar Network700.node260 	number_of_desired_resources 	15
scalar Network700.node260 	query_homogenity_rate 	20
scalar Network700.node260 	qrecord_time 	7404
scalar Network700.node260 	discovery_resolution_rate 	100
scalar Network700.node370 	rate_of_requesters 	1
scalar Network700.node370 	number_of_resources 	38500
scalar Network700.node370 	time_period 	2
scalar Network700.node370 	number_of_messages 	85
scalar Network700.node370 	discovery_latency 	630
scalar Network700.node370 	number_of_desired_resources 	15
scalar Network700.node370 	query_homogenity_rate 	20
scalar Network700.node370 	qrecord_time 	7404
scalar Network700.node370 	discovery_resolution_rate 	100
scalar Network700.node170 	rate_of_requesters 	1
scalar Network700.node170 	number_of_resources 	38500
scalar Network700.node170 	time_period 	2
scalar Network700.node170 	number_of_messages 	60
scalar Network700.node170 	discovery_latency 	690
scalar Network700.node170 	number_of_desired_resources 	15
scalar Network700.node170 	query_homogenity_rate 	20
scalar Network700.node170 	qrecord_time 	7404
scalar Network700.node170 	discovery_resolution_rate 	100
scalar Network700.node300 	rate_of_requesters 	1
scalar Network700.node300 	number_of_resources 	38500
scalar Network700.node300 	time_period 	2
scalar Network700.node300 	number_of_messages 	105
scalar Network700.node300 	discovery_latency 	708
scalar Network700.node300 	number_of_desired_resources 	15
scalar Network700.node300 	query_homogenity_rate 	20
scalar Network700.node300 	qrecord_time 	7416
scalar Network700.node300 	discovery_resolution_rate 	100
scalar Network700.node680 	rate_of_requesters 	1
scalar Network700.node680 	number_of_resources 	38500
scalar Network700.node680 	time_period 	2
scalar Network700.node680 	number_of_messages 	106
scalar Network700.node680 	discovery_latency 	792
scalar Network700.node680 	number_of_desired_resources 	15
scalar Network700.node680 	query_homogenity_rate 	20
scalar Network700.node680 	qrecord_time 	7524
scalar Network700.node680 	discovery_resolution_rate 	100
scalar Network700.node120 	rate_of_requesters 	1
scalar Network700.node120 	number_of_resources 	38500
scalar Network700.node120 	time_period 	3
scalar Network700.node120 	number_of_messages 	31
scalar Network700.node120 	discovery_latency 	132
scalar Network700.node120 	number_of_desired_resources 	15
scalar Network700.node120 	query_homogenity_rate 	20
scalar Network700.node120 	qrecord_time 	8822
scalar Network700.node120 	discovery_resolution_rate 	100
scalar Network700.node480 	rate_of_requesters 	1
scalar Network700.node480 	number_of_resources 	38500
scalar Network700.node480 	time_period 	3
scalar Network700.node480 	number_of_messages 	46
scalar Network700.node480 	discovery_latency 	192
scalar Network700.node480 	number_of_desired_resources 	15
scalar Network700.node480 	query_homogenity_rate 	20
scalar Network700.node480 	qrecord_time 	8834
scalar Network700.node480 	discovery_resolution_rate 	100
scalar Network700.node60 	rate_of_requesters 	1
scalar Network700.node60 	number_of_resources 	38500
scalar Network700.node60 	time_period 	3
scalar Network700.node60 	number_of_messages 	31
scalar Network700.node60 	discovery_latency 	132
scalar Network700.node60 	number_of_desired_resources 	15
scalar Network700.node60 	query_homogenity_rate 	20
scalar Network700.node60 	qrecord_time 	8840
scalar Network700.node60 	discovery_resolution_rate 	100
scalar Network700.node190 	rate_of_requesters 	1
scalar Network700.node190 	number_of_resources 	38500
scalar Network700.node190 	time_period 	3
scalar Network700.node190 	number_of_messages 	28
scalar Network700.node190 	discovery_latency 	108
scalar Network700.node190 	number_of_desired_resources 	15
scalar Network700.node190 	query_homogenity_rate 	20
scalar Network700.node190 	qrecord_time 	8846
scalar Network700.node190 	discovery_resolution_rate 	100
scalar Network700.node50 	rate_of_requesters 	1
scalar Network700.node50 	number_of_resources 	38500
scalar Network700.node50 	time_period 	3
scalar Network700.node50 	number_of_messages 	33
scalar Network700.node50 	discovery_latency 	156
scalar Network700.node50 	number_of_desired_resources 	15
scalar Network700.node50 	query_homogenity_rate 	20
scalar Network700.node50 	qrecord_time 	8846
scalar Network700.node50 	discovery_resolution_rate 	100
scalar Network700.node240 	rate_of_requesters 	1
scalar Network700.node240 	number_of_resources 	38500
scalar Network700.node240 	time_period 	3
scalar Network700.node240 	number_of_messages 	33
scalar Network700.node240 	discovery_latency 	156
scalar Network700.node240 	number_of_desired_resources 	15
scalar Network700.node240 	query_homogenity_rate 	20
scalar Network700.node240 	qrecord_time 	8846
scalar Network700.node240 	discovery_resolution_rate 	100
scalar Network700.node140 	rate_of_requesters 	1
scalar Network700.node140 	number_of_resources 	38500
scalar Network700.node140 	time_period 	3
scalar Network700.node140 	number_of_messages 	34
scalar Network700.node140 	discovery_latency 	132
scalar Network700.node140 	number_of_desired_resources 	15
scalar Network700.node140 	query_homogenity_rate 	20
scalar Network700.node140 	qrecord_time 	8858
scalar Network700.node140 	discovery_resolution_rate 	100
scalar Network700.node650 	rate_of_requesters 	1
scalar Network700.node650 	number_of_resources 	38500
scalar Network700.node650 	time_period 	3
scalar Network700.node650 	number_of_messages 	38
scalar Network700.node650 	discovery_latency 	168
scalar Network700.node650 	number_of_desired_resources 	15
scalar Network700.node650 	query_homogenity_rate 	20
scalar Network700.node650 	qrecord_time 	8858
scalar Network700.node650 	discovery_resolution_rate 	100
scalar Network700.node590 	rate_of_requesters 	1
scalar Network700.node590 	number_of_resources 	38500
scalar Network700.node590 	time_period 	3
scalar Network700.node590 	number_of_messages 	39
scalar Network700.node590 	discovery_latency 	168
scalar Network700.node590 	number_of_desired_resources 	15
scalar Network700.node590 	query_homogenity_rate 	20
scalar Network700.node590 	qrecord_time 	8876
scalar Network700.node590 	discovery_resolution_rate 	100
scalar Network700.node440 	rate_of_requesters 	1
scalar Network700.node440 	number_of_resources 	38500
scalar Network700.node440 	time_period 	3
scalar Network700.node440 	number_of_messages 	45
scalar Network700.node440 	discovery_latency 	228
scalar Network700.node440 	number_of_desired_resources 	15
scalar Network700.node440 	query_homogenity_rate 	20
scalar Network700.node440 	qrecord_time 	8876
scalar Network700.node440 	discovery_resolution_rate 	100
scalar Network700.node570 	rate_of_requesters 	1
scalar Network700.node570 	number_of_resources 	38500
scalar Network700.node570 	time_period 	3
scalar Network700.node570 	number_of_messages 	33
scalar Network700.node570 	discovery_latency 	168
scalar Network700.node570 	number_of_desired_resources 	15
scalar Network700.node570 	query_homogenity_rate 	20
scalar Network700.node570 	qrecord_time 	8888
scalar Network700.node570 	discovery_resolution_rate 	100
scalar Network700.node250 	rate_of_requesters 	1
scalar Network700.node250 	number_of_resources 	38500
scalar Network700.node250 	time_period 	3
scalar Network700.node250 	number_of_messages 	31
scalar Network700.node250 	discovery_latency 	204
scalar Network700.node250 	number_of_desired_resources 	15
scalar Network700.node250 	query_homogenity_rate 	20
scalar Network700.node250 	qrecord_time 	8912
scalar Network700.node250 	discovery_resolution_rate 	100
scalar Network700.node660 	rate_of_requesters 	1
scalar Network700.node660 	number_of_resources 	38500
scalar Network700.node660 	time_period 	3
scalar Network700.node660 	number_of_messages 	49
scalar Network700.node660 	discovery_latency 	204
scalar Network700.node660 	number_of_desired_resources 	15
scalar Network700.node660 	query_homogenity_rate 	20
scalar Network700.node660 	qrecord_time 	8912
scalar Network700.node660 	discovery_resolution_rate 	100
scalar Network700.node80 	rate_of_requesters 	1
scalar Network700.node80 	number_of_resources 	38500
scalar Network700.node80 	time_period 	3
scalar Network700.node80 	number_of_messages 	50
scalar Network700.node80 	discovery_latency 	228
scalar Network700.node80 	number_of_desired_resources 	15
scalar Network700.node80 	query_homogenity_rate 	20
scalar Network700.node80 	qrecord_time 	8918
scalar Network700.node80 	discovery_resolution_rate 	100
scalar Network700.node130 	rate_of_requesters 	1
scalar Network700.node130 	number_of_resources 	38500
scalar Network700.node130 	time_period 	3
scalar Network700.node130 	number_of_messages 	50
scalar Network700.node130 	discovery_latency 	228
scalar Network700.node130 	number_of_desired_resources 	15
scalar Network700.node130 	query_homogenity_rate 	20
scalar Network700.node130 	qrecord_time 	8924
scalar Network700.node130 	discovery_resolution_rate 	100
scalar Network700.node270 	rate_of_requesters 	1
scalar Network700.node270 	number_of_resources 	38500
scalar Network700.node270 	time_period 	3
scalar Network700.node270 	number_of_messages 	22
scalar Network700.node270 	discovery_latency 	180
scalar Network700.node270 	number_of_desired_resources 	15
scalar Network700.node270 	query_homogenity_rate 	20
scalar Network700.node270 	qrecord_time 	8930
scalar Network700.node270 	discovery_resolution_rate 	100
scalar Network700.node430 	rate_of_requesters 	1
scalar Network700.node430 	number_of_resources 	38500
scalar Network700.node430 	time_period 	3
scalar Network700.node430 	number_of_messages 	40
scalar Network700.node430 	discovery_latency 	240
scalar Network700.node430 	number_of_desired_resources 	15
scalar Network700.node430 	query_homogenity_rate 	20
scalar Network700.node430 	qrecord_time 	8930
scalar Network700.node430 	discovery_resolution_rate 	100
scalar Network700.node610 	rate_of_requesters 	1
scalar Network700.node610 	number_of_resources 	38500
scalar Network700.node610 	time_period 	3
scalar Network700.node610 	number_of_messages 	34
scalar Network700.node610 	discovery_latency 	192
scalar Network700.node610 	number_of_desired_resources 	15
scalar Network700.node610 	query_homogenity_rate 	20
scalar Network700.node610 	qrecord_time 	8936
scalar Network700.node610 	discovery_resolution_rate 	100
scalar Network700.node690 	rate_of_requesters 	1
scalar Network700.node690 	number_of_resources 	38500
scalar Network700.node690 	time_period 	3
scalar Network700.node690 	number_of_messages 	44
scalar Network700.node690 	discovery_latency 	228
scalar Network700.node690 	number_of_desired_resources 	15
scalar Network700.node690 	query_homogenity_rate 	20
scalar Network700.node690 	qrecord_time 	8936
scalar Network700.node690 	discovery_resolution_rate 	100
scalar Network700.node310 	rate_of_requesters 	1
scalar Network700.node310 	number_of_resources 	38500
scalar Network700.node310 	time_period 	3
scalar Network700.node310 	number_of_messages 	54
scalar Network700.node310 	discovery_latency 	252
scalar Network700.node310 	number_of_desired_resources 	15
scalar Network700.node310 	query_homogenity_rate 	20
scalar Network700.node310 	qrecord_time 	8936
scalar Network700.node310 	discovery_resolution_rate 	100
scalar Network700.node470 	rate_of_requesters 	1
scalar Network700.node470 	number_of_resources 	38500
scalar Network700.node470 	time_period 	3
scalar Network700.node470 	number_of_messages 	39
scalar Network700.node470 	discovery_latency 	204
scalar Network700.node470 	number_of_desired_resources 	15
scalar Network700.node470 	query_homogenity_rate 	20
scalar Network700.node470 	qrecord_time 	8942
scalar Network700.node470 	discovery_resolution_rate 	100
scalar Network700.node460 	rate_of_requesters 	1
scalar Network700.node460 	number_of_resources 	38500
scalar Network700.node460 	time_period 	3
scalar Network700.node460 	number_of_messages 	34
scalar Network700.node460 	discovery_latency 	252
scalar Network700.node460 	number_of_desired_resources 	15
scalar Network700.node460 	query_homogenity_rate 	20
scalar Network700.node460 	qrecord_time 	8942
scalar Network700.node460 	discovery_resolution_rate 	100
scalar Network700.node550 	rate_of_requesters 	1
scalar Network700.node550 	number_of_resources 	38500
scalar Network700.node550 	time_period 	3
scalar Network700.node550 	number_of_messages 	24
scalar Network700.node550 	discovery_latency 	180
scalar Network700.node550 	number_of_desired_resources 	15
scalar Network700.node550 	query_homogenity_rate 	20
scalar Network700.node550 	qrecord_time 	8948
scalar Network700.node550 	discovery_resolution_rate 	100
scalar Network700.node20 	rate_of_requesters 	1
scalar Network700.node20 	number_of_resources 	38500
scalar Network700.node20 	time_period 	3
scalar Network700.node20 	number_of_messages 	39
scalar Network700.node20 	discovery_latency 	204
scalar Network700.node20 	number_of_desired_resources 	15
scalar Network700.node20 	query_homogenity_rate 	20
scalar Network700.node20 	qrecord_time 	8960
scalar Network700.node20 	discovery_resolution_rate 	100
scalar Network700.node500 	rate_of_requesters 	1
scalar Network700.node500 	number_of_resources 	38500
scalar Network700.node500 	time_period 	3
scalar Network700.node500 	number_of_messages 	45
scalar Network700.node500 	discovery_latency 	252
scalar Network700.node500 	number_of_desired_resources 	15
scalar Network700.node500 	query_homogenity_rate 	20
scalar Network700.node500 	qrecord_time 	8960
scalar Network700.node500 	discovery_resolution_rate 	100
scalar Network700.node530 	rate_of_requesters 	1
scalar Network700.node530 	number_of_resources 	38500
scalar Network700.node530 	time_period 	3
scalar Network700.node530 	number_of_messages 	37
scalar Network700.node530 	discovery_latency 	216
scalar Network700.node530 	number_of_desired_resources 	15
scalar Network700.node530 	query_homogenity_rate 	20
scalar Network700.node530 	qrecord_time 	8966
scalar Network700.node530 	discovery_resolution_rate 	100
scalar Network700.node210 	rate_of_requesters 	1
scalar Network700.node210 	number_of_resources 	38500
scalar Network700.node210 	time_period 	3
scalar Network700.node210 	number_of_messages 	55
scalar Network700.node210 	discovery_latency 	276
scalar Network700.node210 	number_of_desired_resources 	15
scalar Network700.node210 	query_homogenity_rate 	20
scalar Network700.node210 	qrecord_time 	8966
scalar Network700.node210 	discovery_resolution_rate 	100
scalar Network700.node100 	rate_of_requesters 	1
scalar Network700.node100 	number_of_resources 	38500
scalar Network700.node100 	time_period 	3
scalar Network700.node100 	number_of_messages 	35
scalar Network700.node100 	discovery_latency 	240
scalar Network700.node100 	number_of_desired_resources 	15
scalar Network700.node100 	query_homogenity_rate 	20
scalar Network700.node100 	qrecord_time 	8972
scalar Network700.node100 	discovery_resolution_rate 	100
scalar Network700.node410 	rate_of_requesters 	1
scalar Network700.node410 	number_of_resources 	38500
scalar Network700.node410 	time_period 	3
scalar Network700.node410 	number_of_messages 	52
scalar Network700.node410 	discovery_latency 	252
scalar Network700.node410 	number_of_desired_resources 	15
scalar Network700.node410 	query_homogenity_rate 	20
scalar Network700.node410 	qrecord_time 	8972
scalar Network700.node410 	discovery_resolution_rate 	100
scalar Network700.node400 	rate_of_requesters 	1
scalar Network700.node400 	number_of_resources 	38500
scalar Network700.node400 	time_period 	3
scalar Network700.node400 	number_of_messages 	53
scalar Network700.node400 	discovery_latency 	312
scalar Network700.node400 	number_of_desired_resources 	15
scalar Network700.node400 	query_homogenity_rate 	20
scalar Network700.node400 	qrecord_time 	8978
scalar Network700.node400 	discovery_resolution_rate 	100
scalar Network700.node230 	rate_of_requesters 	1
scalar Network700.node230 	number_of_resources 	38500
scalar Network700.node230 	time_period 	3
scalar Network700.node230 	number_of_messages 	44
scalar Network700.node230 	discovery_latency 	276
scalar Network700.node230 	number_of_desired_resources 	15
scalar Network700.node230 	query_homogenity_rate 	20
scalar Network700.node230 	qrecord_time 	8990
scalar Network700.node230 	discovery_resolution_rate 	100
scalar Network700.node280 	rate_of_requesters 	1
scalar Network700.node280 	number_of_resources 	38500
scalar Network700.node280 	time_period 	3
scalar Network700.node280 	number_of_messages 	41
scalar Network700.node280 	discovery_latency 	204
scalar Network700.node280 	number_of_desired_resources 	15
scalar Network700.node280 	query_homogenity_rate 	20
scalar Network700.node280 	qrecord_time 	9002
scalar Network700.node280 	discovery_resolution_rate 	100
scalar Network700.node450 	rate_of_requesters 	1
scalar Network700.node450 	number_of_resources 	38500
scalar Network700.node450 	time_period 	3
scalar Network700.node450 	number_of_messages 	40
scalar Network700.node450 	discovery_latency 	312
scalar Network700.node450 	number_of_desired_resources 	15
scalar Network700.node450 	query_homogenity_rate 	20
scalar Network700.node450 	qrecord_time 	9008
[...]
scalar Network700.node100 	query_homogenity_rate 	20
scalar Network700.node100 	qrecord_time 	10972
scalar Network700.node100 	discovery_resolution_rate 	100
scalar Network700.node410 	rate_of_requesters 	1
scalar Network700.node410 	number_of_resources 	38500
scalar Network700.node410 	time_period 	4
scalar Network700.node410 	number_of_messages 	52
scalar Network700.node410 	discovery_latency 	252
scalar Network700.node410 	number_of_desired_resources 	15
scalar Network700.node410 	query_homogenity_rate 	20
scalar Network700.node410 	qrecord_time 	10972
scalar Network700.node410 	discovery_resolution_rate 	100
scalar Network700.node570 	rate_of_requesters 	1
scalar Network700.node570 	number_of_resources 	38500
scalar Network700.node570 	time_period 	4
scalar Network700.node570 	number_of_messages 	35
scalar Network700.node570 	discovery_latency 	264
scalar Network700.node570 	number_of_desired_resources 	15
scalar Network700.node570 	query_homogenity_rate 	20
scalar Network700.node570 	qrecord_time 	10984
scalar Network700.node570 	discovery_resolution_rate 	100
scalar Network700.node600 	rate_of_requesters 	1
scalar Network700.node600 	number_of_resources 	38500
scalar Network700.node600 	time_period 	4
scalar Network700.node600 	number_of_messages 	39
scalar Network700.node600 	discovery_latency 	240
scalar Network700.node600 	number_of_desired_resources 	15
scalar Network700.node600 	query_homogenity_rate 	20
scalar Network700.node600 	qrecord_time 	11008
scalar Network700.node600 	discovery_resolution_rate 	100
scalar Network700.node450 	rate_of_requesters 	1
scalar Network700.node450 	number_of_resources 	38500
scalar Network700.node450 	time_period 	4
scalar Network700.node450 	number_of_messages 	40
scalar Network700.node450 	discovery_latency 	312
scalar Network700.node450 	number_of_desired_resources 	15
scalar Network700.node450 	query_homogenity_rate 	20
scalar Network700.node450 	qrecord_time 	11008
scalar Network700.node450 	discovery_resolution_rate 	100
scalar Network700.node350 	rate_of_requesters 	1
scalar Network700.node350 	number_of_resources 	38500
scalar Network700.node350 	time_period 	4
scalar Network700.node350 	number_of_messages 	43
scalar Network700.node350 	discovery_latency 	312
scalar Network700.node350 	number_of_desired_resources 	15
scalar Network700.node350 	query_homogenity_rate 	20
scalar Network700.node350 	qrecord_time 	11020
scalar Network700.node350 	discovery_resolution_rate 	100
scalar Network700.node420 	rate_of_requesters 	1
scalar Network700.node420 	number_of_resources 	38500
scalar Network700.node420 	time_period 	4
scalar Network700.node420 	number_of_messages 	37
scalar Network700.node420 	discovery_latency 	300
scalar Network700.node420 	number_of_desired_resources 	15
scalar Network700.node420 	query_homogenity_rate 	20
scalar Network700.node420 	qrecord_time 	11026
scalar Network700.node420 	discovery_resolution_rate 	100
scalar Network700.node160 	rate_of_requesters 	1
scalar Network700.node160 	number_of_resources 	38500
scalar Network700.node160 	time_period 	4
scalar Network700.node160 	number_of_messages 	37
scalar Network700.node160 	discovery_latency 	264
scalar Network700.node160 	number_of_desired_resources 	15
scalar Network700.node160 	query_homogenity_rate 	20
scalar Network700.node160 	qrecord_time 	11032
scalar Network700.node160 	discovery_resolution_rate 	100
scalar Network700.node250 	rate_of_requesters 	1
scalar Network700.node250 	number_of_resources 	38500
scalar Network700.node250 	time_period 	4
scalar Network700.node250 	number_of_messages 	32
scalar Network700.node250 	discovery_latency 	324
scalar Network700.node250 	number_of_desired_resources 	15
scalar Network700.node250 	query_homogenity_rate 	20
scalar Network700.node250 	qrecord_time 	11032
scalar Network700.node250 	discovery_resolution_rate 	100
scalar Network700.node200 	rate_of_requesters 	1
scalar Network700.node200 	number_of_resources 	38500
scalar Network700.node200 	time_period 	4
scalar Network700.node200 	number_of_messages 	50
scalar Network700.node200 	discovery_latency 	276
scalar Network700.node200 	number_of_desired_resources 	15
scalar Network700.node200 	query_homogenity_rate 	20
scalar Network700.node200 	qrecord_time 	11050
scalar Network700.node200 	discovery_resolution_rate 	100
scalar Network700.node610 	rate_of_requesters 	1
scalar Network700.node610 	number_of_resources 	38500
scalar Network700.node610 	time_period 	4
scalar Network700.node610 	number_of_messages 	39
scalar Network700.node610 	discovery_latency 	312
scalar Network700.node610 	number_of_desired_resources 	15
scalar Network700.node610 	query_homogenity_rate 	20
scalar Network700.node610 	qrecord_time 	11056
scalar Network700.node610 	discovery_resolution_rate 	100
scalar Network700.node10 	rate_of_requesters 	1
scalar Network700.node10 	number_of_resources 	38500
scalar Network700.node10 	time_period 	4
scalar Network700.node10 	number_of_messages 	33
scalar Network700.node10 	discovery_latency 	324
scalar Network700.node10 	number_of_desired_resources 	15
scalar Network700.node10 	query_homogenity_rate 	20
scalar Network700.node10 	qrecord_time 	11062
scalar Network700.node10 	discovery_resolution_rate 	100
scalar Network700.node290 	rate_of_requesters 	1
scalar Network700.node290 	number_of_resources 	38500
scalar Network700.node290 	time_period 	4
scalar Network700.node290 	number_of_messages 	56
scalar Network700.node290 	discovery_latency 	276
scalar Network700.node290 	number_of_desired_resources 	15
scalar Network700.node290 	query_homogenity_rate 	20
scalar Network700.node290 	qrecord_time 	11068
scalar Network700.node290 	discovery_resolution_rate 	100
scalar Network700.node90 	rate_of_requesters 	1
scalar Network700.node90 	number_of_resources 	38500
scalar Network700.node90 	time_period 	4
scalar Network700.node90 	number_of_messages 	54
scalar Network700.node90 	discovery_latency 	360
scalar Network700.node90 	number_of_desired_resources 	15
scalar Network700.node90 	query_homogenity_rate 	20
scalar Network700.node90 	qrecord_time 	11068
scalar Network700.node90 	discovery_resolution_rate 	100
scalar Network700.node380 	rate_of_requesters 	1
scalar Network700.node380 	number_of_resources 	38500
scalar Network700.node380 	time_period 	4
scalar Network700.node380 	number_of_messages 	54
scalar Network700.node380 	discovery_latency 	336
scalar Network700.node380 	number_of_desired_resources 	15
scalar Network700.node380 	query_homogenity_rate 	20
scalar Network700.node380 	qrecord_time 	11080
scalar Network700.node380 	discovery_resolution_rate 	100
scalar Network700.node70 	rate_of_requesters 	1
scalar Network700.node70 	number_of_resources 	38500
scalar Network700.node70 	time_period 	4
scalar Network700.node70 	number_of_messages 	41
scalar Network700.node70 	discovery_latency 	336
scalar Network700.node70 	number_of_desired_resources 	15
scalar Network700.node70 	query_homogenity_rate 	20
scalar Network700.node70 	qrecord_time 	11092
scalar Network700.node70 	discovery_resolution_rate 	100
scalar Network700.node630 	rate_of_requesters 	1
scalar Network700.node630 	number_of_resources 	38500
scalar Network700.node630 	time_period 	4
scalar Network700.node630 	number_of_messages 	75
scalar Network700.node630 	discovery_latency 	372
scalar Network700.node630 	number_of_desired_resources 	15
scalar Network700.node630 	query_homogenity_rate 	20
scalar Network700.node630 	qrecord_time 	11092
scalar Network700.node630 	discovery_resolution_rate 	100
scalar Network700.node560 	rate_of_requesters 	1
scalar Network700.node560 	number_of_resources 	38500
scalar Network700.node560 	time_period 	4
scalar Network700.node560 	number_of_messages 	58
scalar Network700.node560 	discovery_latency 	420
scalar Network700.node560 	number_of_desired_resources 	15
scalar Network700.node560 	query_homogenity_rate 	20
scalar Network700.node560 	qrecord_time 	11110
scalar Network700.node560 	discovery_resolution_rate 	100
scalar Network700.node280 	rate_of_requesters 	1
scalar Network700.node280 	number_of_resources 	38500
scalar Network700.node280 	time_period 	4
scalar Network700.node280 	number_of_messages 	48
scalar Network700.node280 	discovery_latency 	336
scalar Network700.node280 	number_of_desired_resources 	15
scalar Network700.node280 	query_homogenity_rate 	20
scalar Network700.node280 	qrecord_time 	11134
scalar Network700.node280 	discovery_resolution_rate 	100
scalar Network700.node220 	rate_of_requesters 	1
scalar Network700.node220 	number_of_resources 	38500
scalar Network700.node220 	time_period 	4
scalar Network700.node220 	number_of_messages 	59
scalar Network700.node220 	discovery_latency 	372
scalar Network700.node220 	number_of_desired_resources 	15
scalar Network700.node220 	query_homogenity_rate 	20
scalar Network700.node220 	qrecord_time 	11146
scalar Network700.node220 	discovery_resolution_rate 	100
scalar Network700.node640 	rate_of_requesters 	1
scalar Network700.node640 	number_of_resources 	38500
scalar Network700.node640 	time_period 	4
scalar Network700.node640 	number_of_messages 	48
scalar Network700.node640 	discovery_latency 	336
scalar Network700.node640 	number_of_desired_resources 	15
scalar Network700.node640 	query_homogenity_rate 	20
scalar Network700.node640 	qrecord_time 	11152
scalar Network700.node640 	discovery_resolution_rate 	100
scalar Network700.node540 	rate_of_requesters 	1
scalar Network700.node540 	number_of_resources 	38500
scalar Network700.node540 	time_period 	4
scalar Network700.node540 	number_of_messages 	73
scalar Network700.node540 	discovery_latency 	402
scalar Network700.node540 	number_of_desired_resources 	15
scalar Network700.node540 	query_homogenity_rate 	20
scalar Network700.node540 	qrecord_time 	11158
scalar Network700.node540 	discovery_resolution_rate 	100
scalar Network700.node390 	rate_of_requesters 	1
scalar Network700.node390 	number_of_resources 	38500
scalar Network700.node390 	time_period 	4
scalar Network700.node390 	number_of_messages 	71
scalar Network700.node390 	discovery_latency 	408
scalar Network700.node390 	number_of_desired_resources 	15
scalar Network700.node390 	query_homogenity_rate 	20
scalar Network700.node390 	qrecord_time 	11158
scalar Network700.node390 	discovery_resolution_rate 	100
scalar Network700.node180 	rate_of_requesters 	1
scalar Network700.node180 	number_of_resources 	38500
scalar Network700.node180 	time_period 	4
scalar Network700.node180 	number_of_messages 	65
scalar Network700.node180 	discovery_latency 	426
scalar Network700.node180 	number_of_desired_resources 	15
scalar Network700.node180 	query_homogenity_rate 	20
scalar Network700.node180 	qrecord_time 	11158
scalar Network700.node180 	discovery_resolution_rate 	100
scalar Network700.node170 	rate_of_requesters 	1
scalar Network700.node170 	number_of_resources 	38500
scalar Network700.node170 	time_period 	4
scalar Network700.node170 	number_of_messages 	48
scalar Network700.node170 	discovery_latency 	450
scalar Network700.node170 	number_of_desired_resources 	15
scalar Network700.node170 	query_homogenity_rate 	20
scalar Network700.node170 	qrecord_time 	11164
scalar Network700.node170 	discovery_resolution_rate 	100
scalar Network700.node510 	rate_of_requesters 	1
scalar Network700.node510 	number_of_resources 	38500
scalar Network700.node510 	time_period 	4
scalar Network700.node510 	number_of_messages 	65
scalar Network700.node510 	discovery_latency 	426
scalar Network700.node510 	number_of_desired_resources 	15
scalar Network700.node510 	query_homogenity_rate 	20
scalar Network700.node510 	qrecord_time 	11176
scalar Network700.node510 	discovery_resolution_rate 	100
scalar Network700.node670 	rate_of_requesters 	1
scalar Network700.node670 	number_of_resources 	38500
scalar Network700.node670 	time_period 	4
scalar Network700.node670 	number_of_messages 	94
scalar Network700.node670 	discovery_latency 	456
scalar Network700.node670 	number_of_desired_resources 	15
scalar Network700.node670 	query_homogenity_rate 	20
scalar Network700.node670 	qrecord_time 	11176
scalar Network700.node670 	discovery_resolution_rate 	100
scalar Network700.node520 	rate_of_requesters 	1
scalar Network700.node520 	number_of_resources 	38500
scalar Network700.node520 	time_period 	4
scalar Network700.node520 	number_of_messages 	79
scalar Network700.node520 	discovery_latency 	426
scalar Network700.node520 	number_of_desired_resources 	15
scalar Network700.node520 	query_homogenity_rate 	20
scalar Network700.node520 	qrecord_time 	11218
scalar Network700.node520 	discovery_resolution_rate 	100
scalar Network700.node300 	rate_of_requesters 	1
scalar Network700.node300 	number_of_resources 	38500
scalar Network700.node300 	time_period 	4
scalar Network700.node300 	number_of_messages 	88
scalar Network700.node300 	discovery_latency 	540
scalar Network700.node300 	number_of_desired_resources 	15
scalar Network700.node300 	query_homogenity_rate 	20
scalar Network700.node300 	qrecord_time 	11248
scalar Network700.node300 	discovery_resolution_rate 	100
scalar Network700.node360 	rate_of_requesters 	1
scalar Network700.node360 	number_of_resources 	38500
scalar Network700.node360 	time_period 	4
scalar Network700.node360 	number_of_messages 	70
scalar Network700.node360 	discovery_latency 	558
scalar Network700.node360 	number_of_desired_resources 	15
scalar Network700.node360 	query_homogenity_rate 	20
scalar Network700.node360 	qrecord_time 	11314
scalar Network700.node360 	discovery_resolution_rate 	100
scalar Network700.node320 	rate_of_requesters 	1
scalar Network700.node320 	number_of_resources 	38500
scalar Network700.node320 	time_period 	4
scalar Network700.node320 	number_of_messages 	72
scalar Network700.node320 	discovery_latency 	570
scalar Network700.node320 	number_of_desired_resources 	15
scalar Network700.node320 	query_homogenity_rate 	20
scalar Network700.node320 	qrecord_time 	11320
scalar Network700.node320 	discovery_resolution_rate 	100
scalar Network700.node230 	rate_of_requesters 	1
scalar Network700.node230 	number_of_resources 	38500
scalar Network700.node230 	time_period 	4
scalar Network700.node230 	number_of_messages 	57
scalar Network700.node230 	discovery_latency 	618
scalar Network700.node230 	number_of_desired_resources 	15
scalar Network700.node230 	query_homogenity_rate 	20
scalar Network700.node230 	qrecord_time 	11332
scalar Network700.node230 	discovery_resolution_rate 	100
scalar Network700.node580 	rate_of_requesters 	1
scalar Network700.node580 	number_of_resources 	38500
scalar Network700.node580 	time_period 	4
scalar Network700.node580 	number_of_messages 	104
scalar Network700.node580 	discovery_latency 	600
scalar Network700.node580 	number_of_desired_resources 	15
scalar Network700.node580 	query_homogenity_rate 	20
scalar Network700.node580 	qrecord_time 	11356
scalar Network700.node580 	discovery_resolution_rate 	100
scalar Network700.node0 	rate_of_requesters 	1
scalar Network700.node0 	number_of_resources 	38500
scalar Network700.node0 	time_period 	4
scalar Network700.node0 	number_of_messages 	66
scalar Network700.node0 	discovery_latency 	630
scalar Network700.node0 	number_of_desired_resources 	15
scalar Network700.node0 	query_homogenity_rate 	20
scalar Network700.node0 	qrecord_time 	11368
scalar Network700.node0 	discovery_resolution_rate 	100
scalar Network700.node110 	rate_of_requesters 	1
scalar Network700.node110 	number_of_resources 	38500
scalar Network700.node110 	time_period 	4
scalar Network700.node110 	number_of_messages 	71
scalar Network700.node110 	discovery_latency 	630
scalar Network700.node110 	number_of_desired_resources 	15
scalar Network700.node110 	query_homogenity_rate 	20
scalar Network700.node110 	qrecord_time 	11368
scalar Network700.node110 	discovery_resolution_rate 	100
scalar Network700.node30 	rate_of_requesters 	1
scalar Network700.node30 	number_of_resources 	38500
scalar Network700.node30 	time_period 	4
scalar Network700.node30 	number_of_messages 	60
scalar Network700.node30 	discovery_latency 	540
scalar Network700.node30 	number_of_desired_resources 	15
scalar Network700.node30 	query_homogenity_rate 	20
scalar Network700.node30 	qrecord_time 	11392
scalar Network700.node30 	discovery_resolution_rate 	100
scalar Network700.node490 	rate_of_requesters 	1
scalar Network700.node490 	number_of_resources 	38500
scalar Network700.node490 	time_period 	4
scalar Network700.node490 	number_of_messages 	109
scalar Network700.node490 	discovery_latency 	624
scalar Network700.node490 	number_of_desired_resources 	15
scalar Network700.node490 	query_homogenity_rate 	20
scalar Network700.node490 	qrecord_time 	11392
scalar Network700.node490 	discovery_resolution_rate 	100
scalar Network700.node330 	rate_of_requesters 	1
scalar Network700.node330 	number_of_resources 	38500
scalar Network700.node330 	time_period 	4
scalar Network700.node330 	number_of_messages 	78
scalar Network700.node330 	discovery_latency 	666
scalar Network700.node330 	number_of_desired_resources 	15
scalar Network700.node330 	query_homogenity_rate 	20
scalar Network700.node330 	qrecord_time 	11476
scalar Network700.node330 	discovery_resolution_rate 	100
scalar Network700.node370 	rate_of_requesters 	1
scalar Network700.node370 	number_of_resources 	38500
scalar Network700.node370 	time_period 	4
scalar Network700.node370 	number_of_messages 	86
scalar Network700.node370 	discovery_latency 	714
scalar Network700.node370 	number_of_desired_resources 	15
scalar Network700.node370 	query_homogenity_rate 	20
scalar Network700.node370 	qrecord_time 	11488
scalar Network700.node370 	discovery_resolution_rate 	100
scalar Network700.node40 	rate_of_requesters 	1
scalar Network700.node40 	number_of_resources 	38500
scalar Network700.node40 	time_period 	4
scalar Network700.node40 	number_of_messages 	89
scalar Network700.node40 	discovery_latency 	714
scalar Network700.node40 	number_of_desired_resources 	15
scalar Network700.node40 	query_homogenity_rate 	20
scalar Network700.node40 	qrecord_time 	11506
scalar Network700.node40 	discovery_resolution_rate 	100
scalar Network700.node620 	rate_of_requesters 	1
scalar Network700.node620 	number_of_resources 	38500
scalar Network700.node620 	time_period 	4
scalar Network700.node620 	number_of_messages 	92
scalar Network700.node620 	discovery_latency 	780
scalar Network700.node620 	number_of_desired_resources 	15
scalar Network700.node620 	query_homogenity_rate 	20
scalar Network700.node620 	qrecord_time 	11512
scalar Network700.node620 	discovery_resolution_rate 	100
scalar Network700.node680 	rate_of_requesters 	1
scalar Network700.node680 	number_of_resources 	38500
scalar Network700.node680 	time_period 	4
scalar Network700.node680 	number_of_messages 	93
scalar Network700.node680 	discovery_latency 	780
scalar Network700.node680 	number_of_desired_resources 	15
scalar Network700.node680 	query_homogenity_rate 	20
scalar Network700.node680 	qrecord_time 	11512
scalar Network700.node680 	discovery_resolution_rate 	100
scalar Network700.node340 	rate_of_requesters 	1
scalar Network700.node340 	number_of_resources 	38500
scalar Network700.node340 	time_period 	4
scalar Network700.node340 	number_of_messages 	106
scalar Network700.node340 	discovery_latency 	954
scalar Network700.node340 	number_of_desired_resources 	15
scalar Network700.node340 	query_homogenity_rate 	20
scalar Network700.node340 	qrecord_time 	11746
scalar Network700.node340 	discovery_resolution_rate 	100
scalar Network700.node260 	rate_of_requesters 	1
scalar Network700.node260 	number_of_resources 	38500
scalar Network700.node260 	time_period 	4
scalar Network700.node260 	number_of_messages 	106
scalar Network700.node260 	discovery_latency 	954
scalar Network700.node260 	number_of_desired_resources 	15
scalar Network700.node260 	query_homogenity_rate 	20
scalar Network700.node260 	qrecord_time 	11764
scalar Network700.node260 	discovery_resolution_rate 	100
