version 2
run net1000-0-20150624-15:50:11-19609
attr as 1
attr configname net1000
attr datetime 20150624-15:50:11
attr dnor 20
attr experiment net1000
attr inifile omnetpp.ini
attr iterationvars "$rhdrq=3, $dnor=20, $as=1"
attr iterationvars2 "$rhdrq=3, $dnor=20, $as=1, $repetition=0"
attr measurement "$rhdrq=3, $dnor=20, $as=1"
attr network Network1000
attr processid 19609
attr repetition 0
attr replication #0
attr resultdir results
attr rhdrq 3
attr runnumber 0
attr seedset 0

scalar . 	as 	1
scalar . 	dnor 	20
scalar . 	rhdrq 	3
scalar Network1000.node950 	rate_of_requesters 	1
scalar Network1000.node950 	number_of_resources 	55000
scalar Network1000.node950 	time_period 	1
scalar Network1000.node950 	number_of_messages 	20
scalar Network1000.node950 	discovery_latency 	132
scalar Network1000.node950 	number_of_desired_resources 	20
scalar Network1000.node950 	query_homogenity_rate 	33.333333333333
scalar Network1000.node950 	qrecord_time 	4846
scalar Network1000.node950 	discovery_resolution_rate 	100
scalar Network1000.node900 	rate_of_requesters 	1
scalar Network1000.node900 	number_of_resources 	55000
scalar Network1000.node900 	time_period 	1
scalar Network1000.node900 	number_of_messages 	33
scalar Network1000.node900 	discovery_latency 	252
scalar Network1000.node900 	number_of_desired_resources 	20
scalar Network1000.node900 	query_homogenity_rate 	33.333333333333
scalar Network1000.node900 	qrecord_time 	4966
scalar Network1000.node900 	discovery_resolution_rate 	100
scalar Network1000.node220 	rate_of_requesters 	1
scalar Network1000.node220 	number_of_resources 	55000
scalar Network1000.node220 	time_period 	1
scalar Network1000.node220 	number_of_messages 	28
scalar Network1000.node220 	discovery_latency 	288
scalar Network1000.node220 	number_of_desired_resources 	20
scalar Network1000.node220 	query_homogenity_rate 	33.333333333333
scalar Network1000.node220 	qrecord_time 	5020
scalar Network1000.node220 	discovery_resolution_rate 	100
scalar Network1000.node600 	rate_of_requesters 	1
scalar Network1000.node600 	number_of_resources 	55000
scalar Network1000.node600 	time_period 	1
scalar Network1000.node600 	number_of_messages 	34
scalar Network1000.node600 	discovery_latency 	348
scalar Network1000.node600 	number_of_desired_resources 	20
scalar Network1000.node600 	query_homogenity_rate 	33.333333333333
scalar Network1000.node600 	qrecord_time 	5068
scalar Network1000.node600 	discovery_resolution_rate 	100
scalar Network1000.node310 	rate_of_requesters 	1
scalar Network1000.node310 	number_of_resources 	55000
scalar Network1000.node310 	time_period 	1
scalar Network1000.node310 	number_of_messages 	52
scalar Network1000.node310 	discovery_latency 	444
scalar Network1000.node310 	number_of_desired_resources 	20
scalar Network1000.node310 	query_homogenity_rate 	33.333333333333
scalar Network1000.node310 	qrecord_time 	5134
scalar Network1000.node310 	discovery_resolution_rate 	100
scalar Network1000.node70 	rate_of_requesters 	1
scalar Network1000.node70 	number_of_resources 	55000
scalar Network1000.node70 	time_period 	1
scalar Network1000.node70 	number_of_messages 	31
scalar Network1000.node70 	discovery_latency 	6000
scalar Network1000.node70 	number_of_desired_resources 	20
scalar Network1000.node70 	query_homogenity_rate 	33.333333333333
scalar Network1000.node70 	qrecord_time 	10714
scalar Network1000.node70 	discovery_resolution_rate 	66.666666666667
scalar Network1000.node370 	rate_of_requesters 	1
scalar Network1000.node370 	number_of_resources 	55000
scalar Network1000.node370 	time_period 	1
scalar Network1000.node370 	number_of_messages 	13
scalar Network1000.node370 	discovery_latency 	6324
scalar Network1000.node370 	number_of_desired_resources 	20
scalar Network1000.node370 	query_homogenity_rate 	33.333333333333
scalar Network1000.node370 	qrecord_time 	10966
scalar Network1000.node370 	discovery_resolution_rate 	33.333333333333
scalar Network1000.node10 	rate_of_requesters 	1
scalar Network1000.node10 	number_of_resources 	55000
scalar Network1000.node10 	time_period 	1
scalar Network1000.node10 	number_of_messages 	282
scalar Network1000.node10 	discovery_latency 	6240
scalar Network1000.node10 	number_of_desired_resources 	20
scalar Network1000.node10 	query_homogenity_rate 	33.333333333333
scalar Network1000.node10 	qrecord_time 	10972
scalar Network1000.node10 	discovery_resolution_rate 	16.666666666667
scalar Network1000.node330 	rate_of_requesters 	1
scalar Network1000.node330 	number_of_resources 	55000
scalar Network1000.node330 	time_period 	1
scalar Network1000.node330 	number_of_messages 	19
scalar Network1000.node330 	discovery_latency 	6252
scalar Network1000.node330 	number_of_desired_resources 	20
scalar Network1000.node330 	query_homogenity_rate 	33.333333333333
scalar Network1000.node330 	qrecord_time 	10984
scalar Network1000.node330 	discovery_resolution_rate 	33.333333333333
scalar Network1000.node820 	rate_of_requesters 	1
scalar Network1000.node820 	number_of_resources 	55000
scalar Network1000.node820 	time_period 	1
scalar Network1000.node820 	number_of_messages 	2
scalar Network1000.node820 	discovery_latency 	6228
scalar Network1000.node820 	number_of_desired_resources 	20
scalar Network1000.node820 	query_homogenity_rate 	33.333333333333
scalar Network1000.node820 	qrecord_time 	10984
scalar Network1000.node820 	discovery_resolution_rate 	0
scalar Network1000.node490 	rate_of_requesters 	1
scalar Network1000.node490 	number_of_resources 	55000
scalar Network1000.node490 	time_period 	1
scalar Network1000.node490 	number_of_messages 	294
scalar Network1000.node490 	discovery_latency 	6312
scalar Network1000.node490 	number_of_desired_resources 	20
scalar Network1000.node490 	query_homogenity_rate 	33.333333333333
scalar Network1000.node490 	qrecord_time 	10984
scalar Network1000.node490 	discovery_resolution_rate 	16.666666666667
scalar Network1000.node400 	rate_of_requesters 	1
scalar Network1000.node400 	number_of_resources 	55000
scalar Network1000.node400 	time_period 	1
scalar Network1000.node400 	number_of_messages 	7
scalar Network1000.node400 	discovery_latency 	6336
scalar Network1000.node400 	number_of_desired_resources 	20
scalar Network1000.node400 	query_homogenity_rate 	33.333333333333
scalar Network1000.node400 	qrecord_time 	11002
scalar Network1000.node400 	discovery_resolution_rate 	33.333333333333
scalar Network1000.node170 	rate_of_requesters 	1
scalar Network1000.node170 	number_of_resources 	55000
scalar Network1000.node170 	time_period 	1
scalar Network1000.node170 	number_of_messages 	2
scalar Network1000.node170 	discovery_latency 	6294
scalar Network1000.node170 	number_of_desired_resources 	20
scalar Network1000.node170 	query_homogenity_rate 	33.333333333333
scalar Network1000.node170 	qrecord_time 	11008
scalar Network1000.node170 	discovery_resolution_rate 	0
scalar Network1000.node450 	rate_of_requesters 	1
scalar Network1000.node450 	number_of_resources 	55000
scalar Network1000.node450 	time_period 	1
scalar Network1000.node450 	number_of_messages 	323
scalar Network1000.node450 	discovery_latency 	6372
scalar Network1000.node450 	number_of_desired_resources 	20
scalar Network1000.node450 	query_homogenity_rate 	33.333333333333
scalar Network1000.node450 	qrecord_time 	11014
scalar Network1000.node450 	discovery_resolution_rate 	50
scalar Network1000.node190 	rate_of_requesters 	1
scalar Network1000.node190 	number_of_resources 	55000
scalar Network1000.node190 	time_period 	1
scalar Network1000.node190 	number_of_messages 	13
scalar Network1000.node190 	discovery_latency 	6288
scalar Network1000.node190 	number_of_desired_resources 	20
scalar Network1000.node190 	query_homogenity_rate 	33.333333333333
scalar Network1000.node190 	qrecord_time 	11020
scalar Network1000.node190 	discovery_resolution_rate 	66.666666666667
scalar Network1000.node760 	rate_of_requesters 	1
scalar Network1000.node760 	number_of_resources 	55000
scalar Network1000.node760 	time_period 	1
scalar Network1000.node760 	number_of_messages 	10
scalar Network1000.node760 	discovery_latency 	6336
scalar Network1000.node760 	number_of_desired_resources 	20
scalar Network1000.node760 	query_homogenity_rate 	33.333333333333
scalar Network1000.node760 	qrecord_time 	11026
scalar Network1000.node760 	discovery_resolution_rate 	33.333333333333
scalar Network1000.node90 	rate_of_requesters 	1
scalar Network1000.node90 	number_of_resources 	55000
scalar Network1000.node90 	time_period 	1
scalar Network1000.node90 	number_of_messages 	9
scalar Network1000.node90 	discovery_latency 	6318
scalar Network1000.node90 	number_of_desired_resources 	20
scalar Network1000.node90 	query_homogenity_rate 	33.333333333333
scalar Network1000.node90 	qrecord_time 	11032
scalar Network1000.node90 	discovery_resolution_rate 	33.333333333333
scalar Network1000.node440 	rate_of_requesters 	1
scalar Network1000.node440 	number_of_resources 	55000
scalar Network1000.node440 	time_period 	1
scalar Network1000.node440 	number_of_messages 	18
scalar Network1000.node440 	discovery_latency 	6324
scalar Network1000.node440 	number_of_desired_resources 	20
scalar Network1000.node440 	query_homogenity_rate 	33.333333333333
scalar Network1000.node440 	qrecord_time 	11032
scalar Network1000.node440 	discovery_resolution_rate 	33.333333333333
scalar Network1000.node520 	rate_of_requesters 	1
scalar Network1000.node520 	number_of_resources 	55000
scalar Network1000.node520 	time_period 	1
scalar Network1000.node520 	number_of_messages 	8
scalar Network1000.node520 	discovery_latency 	6282
scalar Network1000.node520 	number_of_desired_resources 	20
scalar Network1000.node520 	query_homogenity_rate 	33.333333333333
scalar Network1000.node520 	qrecord_time 	11044
scalar Network1000.node520 	discovery_resolution_rate 	33.333333333333
scalar Network1000.node940 	rate_of_requesters 	1
scalar Network1000.node940 	number_of_resources 	55000
scalar Network1000.node940 	time_period 	1
scalar Network1000.node940 	number_of_messages 	25
scalar Network1000.node940 	discovery_latency 	6336
scalar Network1000.node940 	number_of_desired_resources 	20
scalar Network1000.node940 	query_homogenity_rate 	33.333333333333
scalar Network1000.node940 	qrecord_time 	11044
scalar Network1000.node940 	discovery_resolution_rate 	66.666666666667
scalar Network1000.node590 	rate_of_requesters 	1
scalar Network1000.node590 	number_of_resources 	55000
scalar Network1000.node590 	time_period 	1
scalar Network1000.node590 	number_of_messages 	0
scalar Network1000.node590 	discovery_latency 	6396
scalar Network1000.node590 	number_of_desired_resources 	20
scalar Network1000.node590 	query_homogenity_rate 	33.333333333333
scalar Network1000.node590 	qrecord_time 	11044
scalar Network1000.node590 	discovery_resolution_rate 	0
scalar Network1000.node680 	rate_of_requesters 	1
scalar Network1000.node680 	number_of_resources 	55000
scalar Network1000.node680 	time_period 	1
scalar Network1000.node680 	number_of_messages 	15
scalar Network1000.node680 	discovery_latency 	6372
scalar Network1000.node680 	number_of_desired_resources 	20
scalar Network1000.node680 	query_homogenity_rate 	33.333333333333
scalar Network1000.node680 	qrecord_time 	11062
scalar Network1000.node680 	discovery_resolution_rate 	33.333333333333
scalar Network1000.node100 	rate_of_requesters 	1
scalar Network1000.node100 	number_of_resources 	55000
scalar Network1000.node100 	time_period 	1
scalar Network1000.node100 	number_of_messages 	2
scalar Network1000.node100 	discovery_latency 	6372
scalar Network1000.node100 	number_of_desired_resources 	20
scalar Network1000.node100 	query_homogenity_rate 	33.333333333333
scalar Network1000.node100 	qrecord_time 	11062
scalar Network1000.node100 	discovery_resolution_rate 	0
scalar Network1000.node580 	rate_of_requesters 	1
scalar Network1000.node580 	number_of_resources 	55000
scalar Network1000.node580 	time_period 	1
scalar Network1000.node580 	number_of_messages 	7
scalar Network1000.node580 	discovery_latency 	6354
scalar Network1000.node580 	number_of_desired_resources 	20
scalar Network1000.node580 	query_homogenity_rate 	33.333333333333
scalar Network1000.node580 	qrecord_time 	11062
scalar Network1000.node580 	discovery_resolution_rate 	33.333333333333
scalar Network1000.node280 	rate_of_requesters 	1
scalar Network1000.node280 	number_of_resources 	55000
scalar Network1000.node280 	time_period 	1
scalar Network1000.node280 	number_of_messages 	30
scalar Network1000.node280 	discovery_latency 	6300
scalar Network1000.node280 	number_of_desired_resources 	20
scalar Network1000.node280 	query_homogenity_rate 	33.333333333333
scalar Network1000.node280 	qrecord_time 	11068
scalar Network1000.node280 	discovery_resolution_rate 	66.666666666667
scalar Network1000.node980 	rate_of_requesters 	1
scalar Network1000.node980 	number_of_resources 	55000
scalar Network1000.node980 	time_period 	1
scalar Network1000.node980 	number_of_messages 	43
scalar Network1000.node980 	discovery_latency 	6174
scalar Network1000.node980 	number_of_desired_resources 	20
scalar Network1000.node980 	query_homogenity_rate 	33.333333333333
scalar Network1000.node980 	qrecord_time 	11068
scalar Network1000.node980 	discovery_resolution_rate 	33.333333333333
scalar Network1000.node130 	rate_of_requesters 	1
scalar Network1000.node130 	number_of_resources 	55000
scalar Network1000.node130 	time_period 	1
scalar Network1000.node130 	number_of_messages 	16
scalar Network1000.node130 	discovery_latency 	6342
scalar Network1000.node130 	number_of_desired_resources 	20
scalar Network1000.node130 	query_homogenity_rate 	33.333333333333
scalar Network1000.node130 	qrecord_time 	11074
scalar Network1000.node130 	discovery_resolution_rate 	66.666666666667
scalar Network1000.node540 	rate_of_requesters 	1
scalar Network1000.node540 	number_of_resources 	55000
scalar Network1000.node540 	time_period 	1
scalar Network1000.node540 	number_of_messages 	15
scalar Network1000.node540 	discovery_latency 	6324
scalar Network1000.node540 	number_of_desired_resources 	20
scalar Network1000.node540 	query_homogenity_rate 	33.333333333333
scalar Network1000.node540 	qrecord_time 	11074
scalar Network1000.node540 	discovery_resolution_rate 	33.333333333333
scalar Network1000.node390 	rate_of_requesters 	1
scalar Network1000.node390 	number_of_resources 	55000
scalar Network1000.node390 	time_period 	1
scalar Network1000.node390 	number_of_messages 	2
scalar Network1000.node390 	discovery_latency 	6360
scalar Network1000.node390 	number_of_desired_resources 	20
scalar Network1000.node390 	query_homogenity_rate 	33.333333333333
scalar Network1000.node390 	qrecord_time 	11074
scalar Network1000.node390 	discovery_resolution_rate 	0
scalar Network1000.node470 	rate_of_requesters 	1
scalar Network1000.node470 	number_of_resources 	55000
scalar Network1000.node470 	time_period 	1
scalar Network1000.node470 	number_of_messages 	4
scalar Network1000.node470 	discovery_latency 	6354
scalar Network1000.node470 	number_of_desired_resources 	20
scalar Network1000.node470 	query_homogenity_rate 	33.333333333333
scalar Network1000.node470 	qrecord_time 	11074
scalar Network1000.node470 	discovery_resolution_rate 	33.333333333333
scalar Network1000.node880 	rate_of_requesters 	1
scalar Network1000.node880 	number_of_resources 	55000
scalar Network1000.node880 	time_period 	1
scalar Network1000.node880 	number_of_messages 	2
scalar Network1000.node880 	discovery_latency 	6390
scalar Network1000.node880 	number_of_desired_resources 	20
scalar Network1000.node880 	query_homogenity_rate 	33.333333333333
scalar Network1000.node880 	qrecord_time 	11080
scalar Network1000.node880 	discovery_resolution_rate 	0
scalar Network1000.node630 	rate_of_requesters 	1
scalar Network1000.node630 	number_of_resources 	55000
scalar Network1000.node630 	time_period 	2
scalar Network1000.node630 	number_of_messages 	6
scalar Network1000.node630 	discovery_latency 	6264
scalar Network1000.node630 	number_of_desired_resources 	20
scalar Network1000.node630 	query_homogenity_rate 	33.333333333333
scalar Network1000.node630 	qrecord_time 	11085.743612122
scalar Network1000.node630 	discovery_resolution_rate 	33.333333333333
scalar Network1000.node640 	rate_of_requesters 	1
scalar Network1000.node640 	number_of_resources 	55000
scalar Network1000.node640 	time_period 	1
scalar Network1000.node640 	number_of_messages 	15
scalar Network1000.node640 	discovery_latency 	6360
scalar Network1000.node640 	number_of_desired_resources 	20
scalar Network1000.node640 	query_homogenity_rate 	33.333333333333
scalar Network1000.node640 	qrecord_time 	11086
scalar Network1000.node640 	discovery_resolution_rate 	66.666666666667
scalar Network1000.node70 	rate_of_requesters 	1
scalar Network1000.node70 	number_of_resources 	55000
scalar Network1000.node70 	time_period 	2
scalar Network1000.node70 	number_of_messages 	10
scalar Network1000.node70 	discovery_latency 	6354
scalar Network1000.node70 	number_of_desired_resources 	20
scalar Network1000.node70 	query_homogenity_rate 	33.333333333333
scalar Network1000.node70 	qrecord_time 	11090.642200509
scalar Network1000.node70 	discovery_resolution_rate 	33.333333333333
scalar Network1000.node260 	rate_of_requesters 	1
scalar Network1000.node260 	number_of_resources 	55000
scalar Network1000.node260 	time_period 	1
scalar Network1000.node260 	number_of_messages 	24
scalar Network1000.node260 	discovery_latency 	6324
scalar Network1000.node260 	number_of_desired_resources 	20
scalar Network1000.node260 	query_homogenity_rate 	33.333333333333
scalar Network1000.node260 	qrecord_time 	11092
scalar Network1000.node260 	discovery_resolution_rate 	66.666666666667
scalar Network1000.node660 	rate_of_requesters 	1
scalar Network1000.node660 	number_of_resources 	55000
scalar Network1000.node660 	time_period 	1
scalar Network1000.node660 	number_of_messages 	19
scalar Network1000.node660 	discovery_latency 	6342
scalar Network1000.node660 	number_of_desired_resources 	20
scalar Network1000.node660 	query_homogenity_rate 	33.333333333333
scalar Network1000.node660 	qrecord_time 	11092
scalar Network1000.node660 	discovery_resolution_rate 	33.333333333333
scalar Network1000.node830 	rate_of_requesters 	1
scalar Network1000.node830 	number_of_resources 	55000
scalar Network1000.node830 	time_period 	1
scalar Network1000.node830 	number_of_messages 	16
scalar Network1000.node830 	discovery_latency 	6408
scalar Network1000.node830 	number_of_desired_resources 	20
scalar Network1000.node830 	query_homogenity_rate 	33.333333333333
scalar Network1000.node830 	qrecord_time 	11098
scalar Network1000.node830 	discovery_resolution_rate 	66.666666666667
scalar Network1000.node80 	rate_of_requesters 	1
scalar Network1000.node80 	number_of_resources 	55000
scalar Network1000.node80 	time_period 	1
scalar Network1000.node80 	number_of_messages 	282
scalar Network1000.node80 	discovery_latency 	6396
scalar Network1000.node80 	number_of_desired_resources 	20
scalar Network1000.node80 	query_homogenity_rate 	33.333333333333
scalar Network1000.node80 	qrecord_time 	11110
scalar Network1000.node80 	discovery_resolution_rate 	16.666666666667
scalar Network1000.node850 	rate_of_requesters 	1
scalar Network1000.node850 	number_of_resources 	55000
scalar Network1000.node850 	time_period 	1
scalar Network1000.node850 	number_of_messages 	27
scalar Network1000.node850 	discovery_latency 	6402
scalar Network1000.node850 	number_of_desired_resources 	20
scalar Network1000.node850 	query_homogenity_rate 	33.333333333333
scalar Network1000.node850 	qrecord_time 	11116
scalar Network1000.node850 	discovery_resolution_rate 	66.666666666667
scalar Network1000.node770 	rate_of_requesters 	1
scalar Network1000.node770 	number_of_resources 	55000
scalar Network1000.node770 	time_period 	1
scalar Network1000.node770 	number_of_messages 	6
scalar Network1000.node770 	discovery_latency 	6396
scalar Network1000.node770 	number_of_desired_resources 	20
scalar Network1000.node770 	query_homogenity_rate 	33.333333333333
scalar Network1000.node770 	qrecord_time 	11116
scalar Network1000.node770 	discovery_resolution_rate 	33.333333333333
scalar Network1000.node720 	rate_of_requesters 	1
scalar Network1000.node720 	number_of_resources 	55000
scalar Network1000.node720 	time_period 	1
scalar Network1000.node720 	number_of_messages 	2
scalar Network1000.node720 	discovery_latency 	6480
scalar Network1000.node720 	number_of_desired_resources 	20
scalar Network1000.node720 	query_homogenity_rate 	33.333333333333
scalar Network1000.node720 	qrecord_time 	11122
scalar Network1000.node720 	discovery_resolution_rate 	0
scalar Network1000.node230 	rate_of_requesters 	1
scalar Network1000.node230 	number_of_resources 	55000
scalar Network1000.node230 	time_period 	1
scalar Network1000.node230 	number_of_messages 	10
scalar Network1000.node230 	discovery_latency 	6294
scalar Network1000.node230 	number_of_desired_resources 	20
scalar Network1000.node230 	query_homogenity_rate 	33.333333333333
scalar Network1000.node230 	qrecord_time 	11128
scalar Network1000.node230 	discovery_resolution_rate 	33.333333333333
scalar Network1000.node30 	rate_of_requesters 	1
scalar Network1000.node30 	number_of_resources 	55000
scalar Network1000.node30 	time_period 	1
scalar Network1000.node30 	number_of_messages 	9
scalar Network1000.node30 	discovery_latency 	6396
scalar Network1000.node30 	number_of_desired_resources 	20
scalar Network1000.node30 	query_homogenity_rate 	33.333333333333
scalar Network1000.node30 	qrecord_time 	11128
scalar Network1000.node30 	discovery_resolution_rate 	33.333333333333
scalar Network1000.node630 	rate_of_requesters 	1
scalar Network1000.node630 	number_of_resources 	55000
scalar Network1000.node630 	time_period 	1
scalar Network1000.node630 	number_of_messages 	6
scalar Network1000.node630 	discovery_latency 	6342
scalar Network1000.node630 	number_of_desired_resources 	20
scalar Network1000.node630 	query_homogenity_rate 	33.333333333333
scalar Network1000.node630 	qrecord_time 	11134
scalar Network1000.node630 	discovery_resolution_rate 	33.333333333333
scalar Network1000.node920 	rate_of_requesters 	1
scalar Network1000.node920 	number_of_resources 	55000
scalar Network1000.node920 	time_period 	1
scalar Network1000.node920 	number_of_messages 	10
scalar Network1000.node920 	discovery_latency 	6408
scalar Network1000.node920 	number_of_desired_resources 	20
scalar Network1000.node920 	query_homogenity_rate 	33.333333333333
scalar Network1000.node920 	qrecord_time 	11140
scalar Network1000.node920 	discovery_resolution_rate 	33.333333333333
scalar Network1000.node890 	rate_of_requesters 	1
scalar Network1000.node890 	number_of_resources 	55000
scalar Network1000.node890 	time_period 	1
scalar Network1000.node890 	number_of_messages 	2
scalar Network1000.node890 	discovery_latency 	6420
scalar Network1000.node890 	number_of_desired_resources 	20
scalar Network1000.node890 	query_homogenity_rate 	33.333333333333
scalar Network1000.node890 	qrecord_time 	11146
scalar Network1000.node890 	discovery_resolution_rate 	0
scalar Network1000.node690 	rate_of_requesters 	1
scalar Network1000.node690 	number_of_resources 	55000
scalar Network1000.node690 	time_period 	1
scalar Network1000.node690 	number_of_messages 	2
scalar Network1000.node690 	discovery_latency 	6420
scalar Network1000.node690 	number_of_desired_resources 	20
scalar Network1000.node690 	query_homogenity_rate 	33.333333333333
scalar Network1000.node690 	qrecord_time 	11146
scalar Network1000.node690 	discovery_resolution_rate 	0
scalar Network1000.node500 	rate_of_requesters 	1
scalar Network1000.node500 	number_of_resources 	55000
scalar Network1000.node500 	time_period 	2
scalar Network1000.node500 	number_of_messages 	2
scalar Network1000.node500 	discovery_latency 	6342
scalar Network1000.node500 	number_of_desired_resources 	20
scalar Network1000.node500 	query_homogenity_rate 	33.333333333333
scalar Network1000.node500 	qrecord_time 	11150.395263096
scalar Network1000.node500 	discovery_resolution_rate 	0
scalar Network1000.node210 	rate_of_requesters 	1
scalar Network1000.node210 	number_of_resources 	55000
scalar Network1000.node210 	time_period 	1
scalar Network1000.node210 	number_of_messages 	18
scalar Network1000.node210 	discovery_latency 	6420
scalar Network1000.node210 	number_of_desired_resources 	20
scalar Network1000.node210 	query_homogenity_rate 	33.333333333333
scalar Network1000.node210 	qrecord_time 	11152
scalar Network1000.node210 	discovery_resolution_rate 	66.666666666667
scalar Network1000.node290 	rate_of_requesters 	1
scalar Network1000.node290 	number_of_resources 	55000
scalar Network1000.node290 	time_period 	1
scalar Network1000.node290 	number_of_messages 	2
scalar Network1000.node290 	discovery_latency 	6444
scalar Network1000.node290 	number_of_desired_resources 	20
scalar Network1000.node290 	query_homogenity_rate 	33.333333333333
scalar Network1000.node290 	qrecord_time 	11152
scalar Network1000.node290 	discovery_resolution_rate 	0
scalar Network1000.node40 	rate_of_requesters 	1
scalar Network1000.node40 	number_of_resources 	55000
scalar Network1000.node40 	time_period 	1
scalar Network1000.node40 	number_of_messages 	2
scalar Network1000.node40 	discovery_latency 	6432
scalar Network1000.node40 	number_of_desired_resources 	20
scalar Network1000.node40 	query_homogenity_rate 	33.333333333333
scalar Network1000.node40 	qrecord_time 	11152
scalar Network1000.node40 	discovery_resolution_rate 	33.333333333333
scalar Network1000.node720 	rate_of_requesters 	1
scalar Network1000.node720 	number_of_resources 	55000
scalar Network1000.node720 	time_period 	3
scalar Network1000.node720 	number_of_messages 	2
scalar Network1000.node720 	discovery_latency 	6360
scalar Network1000.node720 	number_of_desired_resources 	20
scalar Network1000.node720 	query_homogenity_rate 	33.333333333333
scalar Network1000.node720 	qrecord_time 	11159.648648904
scalar Network1000.node720 	discovery_resolution_rate 	0
scalar Network1000.node870 	rate_of_requesters 	1
scalar Network1000.node870 	number_of_resources 	55000
scalar Network1000.node870 	time_period 	1
scalar Network1000.node870 	number_of_messages 	274
scalar Network1000.node870 	discovery_latency 	6414
scalar Network1000.node870 	number_of_desired_resources 	20
scalar Network1000.node870 	query_homogenity_rate 	33.333333333333
scalar Network1000.node870 	qrecord_time 	11164
scalar Network1000.node870 	discovery_resolution_rate 	16.666666666667
scalar Network1000.node120 	rate_of_requesters 	1
scalar Network1000.node120 	number_of_resources 	55000
scalar Network1000.node120 	time_period 	1
scalar Network1000.node120 	number_of_messages 	294
scalar Network1000.node120 	discovery_latency 	6396
scalar Network1000.node120 	number_of_desired_resources 	20
scalar Network1000.node120 	query_homogenity_rate 	33.333333333333
scalar Network1000.node120 	qrecord_time 	11164
scalar Network1000.node120 	discovery_resolution_rate 	16.666666666667
scalar Network1000.node410 	rate_of_requesters 	1
scalar Network1000.node410 	number_of_resources 	55000
scalar Network1000.node410 	time_period 	1
scalar Network1000.node410 	number_of_messages 	8
scalar Network1000.node410 	discovery_latency 	6450
scalar Network1000.node410 	number_of_desired_resources 	20
scalar Network1000.node410 	query_homogenity_rate 	33.333333333333
scalar Network1000.node410 	qrecord_time 	11170
scalar Network1000.node410 	discovery_resolution_rate 	33.333333333333
scalar Network1000.node60 	rate_of_requesters 	1
scalar Network1000.node60 	number_of_resources 	55000
scalar Network1000.node60 	time_period 	1
scalar Network1000.node60 	number_of_messages 	6
scalar Network1000.node60 	discovery_latency 	6384
scalar Network1000.node60 	number_of_desired_resources 	20
scalar Network1000.node60 	query_homogenity_rate 	33.333333333333
scalar Network1000.node60 	qrecord_time 	11176
scalar Network1000.node60 	discovery_resolution_rate 	33.333333333333
scalar Network1000.node530 	rate_of_requesters 	1
scalar Network1000.node530 	number_of_resources 	55000
scalar Network1000.node530 	time_period 	1
scalar Network1000.node530 	number_of_messages 	296
scalar Network1000.node530 	discovery_latency 	6426
scalar Network1000.node530 	number_of_desired_resources 	20
scalar Network1000.node530 	query_homogenity_rate 	33.333333333333
scalar Network1000.node530 	qrecord_time 	11176
scalar Network1000.node530 	discovery_resolution_rate 	16.666666666667
scalar Network1000.node360 	rate_of_requesters 	1
scalar Network1000.node360 	number_of_resources 	55000
scalar Network1000.node360 	time_period 	1
scalar Network1000.node360 	number_of_messages 	9
scalar Network1000.node360 	discovery_latency 	6444
scalar Network1000.node360 	number_of_desired_resources 	20
scalar Network1000.node360 	query_homogenity_rate 	33.333333333333
scalar Network1000.node360 	qrecord_time 	11176
scalar Network1000.node360 	discovery_resolution_rate 	33.333333333333
scalar Network1000.node160 	rate_of_requesters 	1
scalar Network1000.node160 	number_of_resources 	55000
scalar Network1000.node160 	time_period 	1
scalar Network1000.node160 	number_of_messages 	2
scalar Network1000.node160 	discovery_latency 	6432
scalar Network1000.node160 	number_of_desired_resources 	20
scalar Network1000.node160 	query_homogenity_rate 	33.333333333333
scalar Network1000.node160 	qrecord_time 	11182
scalar Network1000.node160 	discovery_resolution_rate 	0
scalar Network1000.node960 	rate_of_requesters 	1
scalar Network1000.node960 	number_of_resources 	55000
scalar Network1000.node960 	time_period 	1
scalar Network1000.node960 	number_of_messages 	13
scalar Network1000.node960 	discovery_latency 	6414
scalar Network1000.node960 	number_of_desired_resources 	20
scalar Network1000.node960 	query_homogenity_rate 	33.333333333333
scalar Network1000.node960 	qrecord_time 	11182
scalar Network1000.node960 	discovery_resolution_rate 	33.333333333333
scalar Network1000.node670 	rate_of_requesters 	1
scalar Network1000.node670 	number_of_resources 	55000
scalar Network1000.node670 	time_period 	1
scalar Network1000.node670 	number_of_messages 	2
scalar Network1000.node670 	discovery_latency 	6480
scalar Network1000.node670 	number_of_desired_resources 	20
scalar Network1000.node670 	query_homogenity_rate 	33.333333333333
scalar Network1000.node670 	qrecord_time 	11194
scalar Network1000.node670 	discovery_resolution_rate 	0
scalar Network1000.node800 	rate_of_requesters 	1
scalar Network1000.node800 	number_of_resources 	55000
scalar Network1000.node800 	time_period 	1
scalar Network1000.node800 	number_of_messages 	10
scalar Network1000.node800 	discovery_latency 	6426
scalar Network1000.node800 	number_of_desired_resources 	20
scalar Network1000.node800 	query_homogenity_rate 	33.333333333333
scalar Network1000.node800 	qrecord_time 	11194
scalar Network1000.node800 	discovery_resolution_rate 	33.333333333333
scalar Network1000.node110 	rate_of_requesters 	1
scalar Network1000.node110 	number_of_resources 	55000
scalar Network1000.node110 	time_period 	1
scalar Network1000.node110 	number_of_messages 	2
scalar Network1000.node110 	discovery_latency 	6504
scalar Network1000.node110 	number_of_desired_resources 	20
scalar Network1000.node110 	query_homogenity_rate 	33.333333333333
scalar Network1000.node110 	qrecord_time 	11194
scalar Network1000.node110 	discovery_resolution_rate 	0
scalar Network1000.node750 	rate_of_requesters 	1
scalar Network1000.node750 	number_of_resources 	55000
scalar Network1000.node750 	time_period 	2
scalar Network1000.node750 	number_of_messages 	0
scalar Network1000.node750 	discovery_latency 	6312
scalar Network1000.node750 	number_of_desired_resources 	20
scalar Network1000.node750 	query_homogenity_rate 	33.333333333333
scalar Network1000.node750 	qrecord_time 	11198.886789891
scalar Network1000.node750 	discovery_resolution_rate 	0
scalar Network1000.node340 	rate_of_requesters 	1
scalar Network1000.node340 	number_of_resources 	55000
scalar Network1000.node340 	time_period 	1
scalar Network1000.node340 	number_of_messages 	2
scalar Network1000.node340 	discovery_latency 	6450
scalar Network1000.node340 	number_of_desired_resources 	20
scalar Network1000.node340 	query_homogenity_rate 	33.333333333333
scalar Network1000.node340 	qrecord_time 	11206
scalar Network1000.node340 	discovery_resolution_rate 	0
scalar Network1000.node860 	rate_of_requesters 	1
scalar Network1000.node860 	number_of_resources 	55000
scalar Network1000.node860 	time_period 	1
scalar Network1000.node860 	number_of_messages 	2
scalar Network1000.node860 	discovery_latency 	6450
scalar Network1000.node860 	number_of_desired_resources 	20
scalar Network1000.node860 	query_homogenity_rate 	33.333333333333
scalar Network1000.node860 	qrecord_time 	11206
scalar Network1000.node860 	discovery_resolution_rate 	0
scalar Network1000.node930 	rate_of_requesters 	1
scalar Network1000.node930 	number_of_resources 	55000
scalar Network1000.node930 	time_period 	1
scalar Network1000.node930 	number_of_messages 	15
scalar Network1000.node930 	discovery_latency 	6402
scalar Network1000.node930 	number_of_desired_resources 	20
scalar Network1000.node930 	query_homogenity_rate 	33.333333333333
scalar Network1000.node930 	qrecord_time 	11212
scalar Network1000.node930 	discovery_resolution_rate 	33.333333333333
scalar Network1000.node810 	rate_of_requesters 	1
scalar Network1000.node810 	number_of_resources 	55000
scalar Network1000.node810 	time_period 	1
scalar Network1000.node810 	number_of_messages 	2
scalar Network1000.node810 	discovery_latency 	6504
scalar Network1000.node810 	number_of_desired_resources 	20
scalar Network1000.node810 	query_homogenity_rate 	33.333333333333
scalar Network1000.node810 	qrecord_time 	11218
scalar Network1000.node810 	discovery_resolution_rate 	0
scalar Network1000.node720 	rate_of_requesters 	1
scalar Network1000.node720 	number_of_resources 	55000
scalar Network1000.node720 	time_period 	2
scalar Network1000.node720 	number_of_messages 	2
scalar Network1000.node720 	discovery_latency 	6504
scalar Network1000.node720 	number_of_desired_resources 	20
scalar Network1000.node720 	query_homogenity_rate 	33.333333333333
scalar Network1000.node720 	qrecord_time 	11223.223455869
scalar Network1000.node720 	discovery_resolution_rate 	0
scalar Network1000.node150 	rate_of_requesters 	1
scalar Network1000.node150 	number_of_resources 	55000
scalar Network1000.node150 	time_period 	1
scalar Network1000.node150 	number_of_messages 	12
scalar Network1000.node150 	discovery_latency 	6486
scalar Network1000.node150 	number_of_desired_resources 	20
scalar Network1000.node150 	query_homogenity_rate 	33.333333333333
scalar Network1000.node150 	qrecord_time 	11224
scalar Network1000.node150 	discovery_resolution_rate 	33.333333333333
scalar Network1000.node320 	rate_of_requesters 	1
scalar Network1000.node320 	number_of_resources 	55000
scalar Network1000.node320 	time_period 	1
scalar Network1000.node320 	number_of_messages 	282
scalar Network1000.node320 	discovery_latency 	6516
scalar Network1000.node320 	number_of_desired_resources 	20
scalar Network1000.node320 	query_homogenity_rate 	33.333333333333
scalar Network1000.node320 	qrecord_time 	11224
scalar Network1000.node320 	discovery_resolution_rate 	16.666666666667
scalar Network1000.node0 	rate_of_requesters 	1
scalar Network1000.node0 	number_of_resources 	55000
scalar Network1000.node0 	time_period 	1
scalar Network1000.node0 	number_of_messages 	5
scalar Network1000.node0 	discovery_latency 	6480
scalar Network1000.node0 	number_of_desired_resources 	20
scalar Network1000.node0 	query_homogenity_rate 	33.333333333333
scalar Network1000.node0 	qrecord_time 	11224
scalar Network1000.node0 	discovery_resolution_rate 	33.333333333333
scalar Network1000.node50 	rate_of_requesters 	1
scalar Network1000.node50 	number_of_resources 	55000
scalar Network1000.node50 	time_period 	1
scalar Network1000.node50 	number_of_messages 	11
scalar Network1000.node50 	discovery_latency 	6492
scalar Network1000.node50 	number_of_desired_resources 	20
scalar Network1000.node50 	query_homogenity_rate 	33.333333333333
scalar Network1000.node50 	qrecord_time 	11230
scalar Network1000.node50 	discovery_resolution_rate 	66.666666666667
scalar Network1000.node740 	rate_of_requesters 	1
scalar Network1000.node740 	number_of_resources 	55000
scalar Network1000.node740 	time_period 	1
scalar Network1000.node740 	number_of_messages 	5
scalar Network1000.node740 	discovery_latency 	6510
scalar Network1000.node740 	number_of_desired_resources 	20
scalar Network1000.node740 	query_homogenity_rate 	33.333333333333
scalar Network1000.node740 	qrecord_time 	11236
scalar Network1000.node740 	discovery_resolution_rate 	33.333333333333
scalar Network1000.node750 	rate_of_requesters 	1
scalar Network1000.node750 	number_of_resources 	55000
scalar Network1000.node750 	time_period 	1
scalar Network1000.node750 	number_of_messages 	0
scalar Network1000.node750 	discovery_latency 	6540
scalar Network1000.node750 	number_of_desired_resources 	20
scalar Network1000.node750 	query_homogenity_rate 	33.333333333333
scalar Network1000.node750 	qrecord_time 	11236
scalar Network1000.node750 	discovery_resolution_rate 	0
scalar Network1000.node570 	rate_of_requesters 	1
scalar Network1000.node570 	number_of_resources 	55000
scalar Network1000.node570 	time_period 	1
scalar Network1000.node570 	number_of_messages 	2
scalar Network1000.node570 	discovery_latency 	6468
scalar Network1000.node570 	number_of_desired_resources 	20
scalar Network1000.node570 	query_homogenity_rate 	33.333333333333
scalar Network1000.node570 	qrecord_time 	11242
scalar Network1000.node570 	discovery_resolution_rate 	0
scalar Network1000.node420 	rate_of_requesters 	1
scalar Network1000.node420 	number_of_resources 	55000
scalar Network1000.node420 	time_period 	1
scalar Network1000.node420 	number_of_messages 	15
scalar Network1000.node420 	discovery_latency 	6492
scalar Network1000.node420 	number_of_desired_resources 	20
scalar Network1000.node420 	query_homogenity_rate 	33.333333333333
scalar Network1000.node420 	qrecord_time 	11242
scalar Network1000.node420 	discovery_resolution_rate 	33.333333333333
scalar Network1000.node250 	rate_of_requesters 	1
scalar Network1000.node250 	number_of_resources 	55000
scalar Network1000.node250 	time_period 	1
scalar Network1000.node250 	number_of_messages 	2
scalar Network1000.node250 	discovery_latency 	6540
scalar Network1000.node250 	number_of_desired_resources 	20
scalar Network1000.node250 	query_homogenity_rate 	33.333333333333
scalar Network1000.node250 	qrecord_time 	11248
scalar Network1000.node250 	discovery_resolution_rate 	0
scalar Network1000.node730 	rate_of_requesters 	1
scalar Network1000.node730 	number_of_resources 	55000
scalar Network1000.node730 	time_period 	1
scalar Network1000.node730 	number_of_messages 	2
scalar Network1000.node730 	discovery_latency 	6462
scalar Network1000.node730 	number_of_desired_resources 	20
scalar Network1000.node730 	query_homogenity_rate 	33.333333333333
scalar Network1000.node730 	qrecord_time 	11248
scalar Network1000.node730 	discovery_resolution_rate 	0
scalar Network1000.node910 	rate_of_requesters 	1
scalar Network1000.node910 	number_of_resources 	55000
scalar Network1000.node910 	time_period 	1
scalar Network1000.node910 	number_of_messages 	304
scalar Network1000.node910 	discovery_latency 	6480
scalar Network1000.node910 	number_of_desired_resources 	20
scalar Network1000.node910 	query_homogenity_rate 	33.333333333333
scalar Network1000.node910 	qrecord_time 	11254
scalar Network1000.node910 	discovery_resolution_rate 	50
scalar Network1000.node480 	rate_of_requesters 	1
scalar Network1000.node480 	number_of_resources 	55000
scalar Network1000.node480 	time_period 	1
scalar Network1000.node480 	number_of_messages 	4
scalar Network1000.node480 	discovery_latency 	6504
scalar Network1000.node480 	number_of_desired_resources 	20
scalar Network1000.node480 	query_homogenity_rate 	33.333333333333
scalar Network1000.node480 	qrecord_time 	11254
scalar Network1000.node480 	discovery_resolution_rate 	33.333333333333
scalar Network1000.node650 	rate_of_requesters 	1
scalar Network1000.node650 	number_of_resources 	55000
scalar Network1000.node650 	time_period 	1
scalar Network1000.node650 	number_of_messages 	2
scalar Network1000.node650 	discovery_latency 	6528
scalar Network1000.node650 	number_of_desired_resources 	20
scalar Network1000.node650 	query_homogenity_rate 	33.333333333333
scalar Network1000.node650 	qrecord_time 	11260
scalar Network1000.node650 	discovery_resolution_rate 	0
scalar Network1000.node380 	rate_of_requesters 	1
scalar Network1000.node380 	number_of_resources 	55000
scalar Network1000.node380 	time_period 	1
scalar Network1000.node380 	number_of_messages 	2
scalar Network1000.node380 	discovery_latency 	6552
scalar Network1000.node380 	number_of_desired_resources 	20
scalar Network1000.node380 	query_homogenity_rate 	33.333333333333
scalar Network1000.node380 	qrecord_time 	11260
scalar Network1000.node380 	discovery_resolution_rate 	0
scalar Network1000.node20 	rate_of_requesters 	1
scalar Network1000.node20 	number_of_resources 	55000
scalar Network1000.node20 	time_period 	1
scalar Network1000.node20 	number_of_messages 	8
scalar Network1000.node20 	discovery_latency 	6492
scalar Network1000.node20 	number_of_desired_resources 	20
scalar Network1000.node20 	query_homogenity_rate 	33.333333333333
scalar Network1000.node20 	qrecord_time 	11266
scalar Network1000.node20 	discovery_resolution_rate 	33.333333333333
scalar Network1000.node970 	rate_of_requesters 	1
scalar Network1000.node970 	number_of_resources 	55000
scalar Network1000.node970 	time_period 	1
scalar Network1000.node970 	number_of_messages 	274
scalar Network1000.node970 	discovery_latency 	6540
scalar Network1000.node970 	number_of_desired_resources 	20
scalar Network1000.node970 	query_homogenity_rate 	33.333333333333
scalar Network1000.node970 	qrecord_time 	11272
scalar Network1000.node970 	discovery_resolution_rate 	16.666666666667
scalar Network1000.node230 	rate_of_requesters 	1
scalar Network1000.node230 	number_of_resources 	55000
scalar Network1000.node230 	time_period 	2
scalar Network1000.node230 	number_of_messages 	2
scalar Network1000.node230 	discovery_latency 	6282
scalar Network1000.node230 	number_of_desired_resources 	20
scalar Network1000.node230 	query_homogenity_rate 	33.333333333333
scalar Network1000.node230 	qrecord_time 	11272.705818665
scalar Network1000.node230 	discovery_resolution_rate 	0
scalar Network1000.node350 	rate_of_requesters 	1
scalar Network1000.node350 	number_of_resources 	55000
scalar Network1000.node350 	time_period 	1
scalar Network1000.node350 	number_of_messages 	21
scalar Network1000.node350 	discovery_latency 	6570
scalar Network1000.node350 	number_of_desired_resources 	20
scalar Network1000.node350 	query_homogenity_rate 	33.333333333333
scalar Network1000.node350 	qrecord_time 	11278
scalar Network1000.node350 	discovery_resolution_rate 	33.333333333333
scalar Network1000.node990 	rate_of_requesters 	1
scalar Network1000.node990 	number_of_resources 	55000
scalar Network1000.node990 	time_period 	1
scalar Network1000.node990 	number_of_messages 	2
scalar Network1000.node990 	discovery_latency 	6516
scalar Network1000.node990 	number_of_desired_resources 	20
scalar Network1000.node990 	query_homogenity_rate 	33.333333333333
scalar Network1000.node990 	qrecord_time 	11290
scalar Network1000.node990 	discovery_resolution_rate 	0
scalar Network1000.node710 	rate_of_requesters 	1
scalar Network1000.node710 	number_of_resources 	55000
scalar Network1000.node710 	time_period 	1
scalar Network1000.node710 	number_of_messages 	10
scalar Network1000.node710 	discovery_latency 	6564
scalar Network1000.node710 	number_of_desired_resources 	20
scalar Network1000.node710 	query_homogenity_rate 	33.333333333333
scalar Network1000.node710 	qrecord_time 	11290
scalar Network1000.node710 	discovery_resolution_rate 	33.333333333333
scalar Network1000.node780 	rate_of_requesters 	1
scalar Network1000.node780 	number_of_resources 	55000
scalar Network1000.node780 	time_period 	1
scalar Network1000.node780 	number_of_messages 	2
scalar Network1000.node780 	discovery_latency 	6444
scalar Network1000.node780 	number_of_desired_resources 	20
scalar Network1000.node780 	query_homogenity_rate 	33.333333333333
scalar Network1000.node780 	qrecord_time 	11296
scalar Network1000.node780 	discovery_resolution_rate 	0
scalar Network1000.node20 	rate_of_requesters 	1
scalar Network1000.node20 	number_of_resources 	55000
scalar Network1000.node20 	time_period 	2
scalar Network1000.node20 	number_of_messages 	2
scalar Network1000.node20 	discovery_latency 	6438
scalar Network1000.node20 	number_of_desired_resources 	20
scalar Network1000.node20 	query_homogenity_rate 	33.333333333333
scalar Network1000.node20 	qrecord_time 	11313.420056901
scalar Network1000.node20 	discovery_resolution_rate 	0
scalar Network1000.node620 	rate_of_requesters 	1
scalar Network1000.node620 	number_of_resources 	55000
scalar Network1000.node620 	time_period 	1
scalar Network1000.node620 	number_of_messages 	2
scalar Network1000.node620 	discovery_latency 	6576
scalar Network1000.node620 	number_of_desired_resources 	20
scalar Network1000.node620 	query_homogenity_rate 	33.333333333333
scalar Network1000.node620 	qrecord_time 	11314
scalar Network1000.node620 	discovery_resolution_rate 	0
scalar Network1000.node180 	rate_of_requesters 	1
scalar Network1000.node180 	number_of_resources 	55000
scalar Network1000.node180 	time_period 	1
scalar Network1000.node180 	number_of_messages 	22
scalar Network1000.node180 	discovery_latency 	6588
scalar Network1000.node180 	number_of_desired_resources 	20
scalar Network1000.node180 	query_homogenity_rate 	33.333333333333
scalar Network1000.node180 	qrecord_time 	11326
scalar Network1000.node180 	discovery_resolution_rate 	66.666666666667
scalar Network1000.node460 	rate_of_requesters 	1
scalar Network1000.node460 	number_of_resources 	55000
scalar Network1000.node460 	time_period 	1
scalar Network1000.node460 	number_of_messages 	2
scalar Network1000.node460 	discovery_latency 	6492
scalar Network1000.node460 	number_of_desired_resources 	20
scalar Network1000.node460 	query_homogenity_rate 	33.333333333333
scalar Network1000.node460 	qrecord_time 	11326
scalar Network1000.node460 	discovery_resolution_rate 	0
scalar Network1000.node560 	rate_of_requesters 	1
scalar Network1000.node560 	number_of_resources 	55000
scalar Network1000.node560 	time_period 	1
scalar Network1000.node560 	number_of_messages 	9
scalar Network1000.node560 	discovery_latency 	6516
scalar Network1000.node560 	number_of_desired_resources 	20
scalar Network1000.node560 	query_homogenity_rate 	33.333333333333
scalar Network1000.node560 	qrecord_time 	11332
scalar Network1000.node560 	discovery_resolution_rate 	33.333333333333
scalar Network1000.node430 	rate_of_requesters 	1
scalar Network1000.node430 	number_of_resources 	55000
scalar Network1000.node430 	time_period 	1
scalar Network1000.node430 	number_of_messages 	2
scalar Network1000.node430 	discovery_latency 	6606
scalar Network1000.node430 	number_of_desired_resources 	20
scalar Network1000.node430 	query_homogenity_rate 	33.333333333333
scalar Network1000.node430 	qrecord_time 	11332
scalar Network1000.node430 	discovery_resolution_rate 	0
scalar Network1000.node790 	rate_of_requesters 	1
scalar Network1000.node790 	number_of_resources 	55000
scalar Network1000.node790 	time_period 	1
scalar Network1000.node790 	number_of_messages 	2
scalar Network1000.node790 	discovery_latency 	6624
scalar Network1000.node790 	number_of_desired_resources 	20
scalar Network1000.node790 	query_homogenity_rate 	33.333333333333
scalar Network1000.node790 	qrecord_time 	11332
scalar Network1000.node790 	discovery_resolution_rate 	0
scalar Network1000.node790 	rate_of_requesters 	1
scalar Network1000.node790 	number_of_resources 	55000
scalar Network1000.node790 	time_period 	3
scalar Network1000.node790 	number_of_messages 	2
scalar Network1000.node790 	discovery_latency 	6444
scalar Network1000.node790 	number_of_desired_resources 	20
scalar Network1000.node790 	query_homogenity_rate 	33.333333333333
scalar Network1000.node790 	qrecord_time 	11336.359386905
scalar Network1000.node790 	discovery_resolution_rate 	0
scalar Network1000.node300 	rate_of_requesters 	1
scalar Network1000.node300 	number_of_resources 	55000
scalar Network1000.node300 	time_period 	1
scalar Network1000.node300 	number_of_messages 	2
scalar Network1000.node300 	discovery_latency 	6576
scalar Network1000.node300 	number_of_desired_resources 	20
scalar Network1000.node300 	query_homogenity_rate 	33.333333333333
scalar Network1000.node300 	qrecord_time 	11344
scalar Network1000.node300 	discovery_resolution_rate 	0
scalar Network1000.node500 	rate_of_requesters 	1
scalar Network1000.node500 	number_of_resources 	55000
scalar Network1000.node500 	time_period 	1
scalar Network1000.node500 	number_of_messages 	4
scalar Network1000.node500 	discovery_latency 	6600
scalar Network1000.node500 	number_of_desired_resources 	20
scalar Network1000.node500 	query_homogenity_rate 	33.333333333333
scalar Network1000.node500 	qrecord_time 	11350
scalar Network1000.node500 	discovery_resolution_rate 	33.333333333333
scalar Network1000.node240 	rate_of_requesters 	1
scalar Network1000.node240 	number_of_resources 	55000
scalar Network1000.node240 	time_period 	1
scalar Network1000.node240 	number_of_messages 	13
scalar Network1000.node240 	discovery_latency 	6660
scalar Network1000.node240 	number_of_desired_resources 	20
scalar Network1000.node240 	query_homogenity_rate 	33.333333333333
scalar Network1000.node240 	qrecord_time 	11350
scalar Network1000.node240 	discovery_resolution_rate 	33.333333333333
scalar Network1000.node610 	rate_of_requesters 	1
scalar Network1000.node610 	number_of_resources 	55000
scalar Network1000.node610 	time_period 	1
scalar Network1000.node610 	number_of_messages 	2
scalar Network1000.node610 	discovery_latency 	6624
scalar Network1000.node610 	number_of_desired_resources 	20
scalar Network1000.node610 	query_homogenity_rate 	33.333333333333
scalar Network1000.node610 	qrecord_time 	11350
scalar Network1000.node610 	discovery_resolution_rate 	0
scalar Network1000.node140 	rate_of_requesters 	1
scalar Network1000.node140 	number_of_resources 	55000
scalar Network1000.node140 	time_period 	1
scalar Network1000.node140 	number_of_messages 	7
scalar Network1000.node140 	discovery_latency 	6564
scalar Network1000.node140 	number_of_desired_resources 	20
scalar Network1000.node140 	query_homogenity_rate 	33.333333333333
scalar Network1000.node140 	qrecord_time 	11356
scalar Network1000.node140 	discovery_resolution_rate 	33.333333333333
scalar Network1000.node840 	rate_of_requesters 	1
scalar Network1000.node840 	number_of_resources 	55000
scalar Network1000.node840 	time_period 	1
scalar Network1000.node840 	number_of_messages 	2
scalar Network1000.node840 	discovery_latency 	6612
scalar Network1000.node840 	number_of_desired_resources 	20
scalar Network1000.node840 	query_homogenity_rate 	33.333333333333
scalar Network1000.node840 	qrecord_time 	11362
scalar Network1000.node840 	discovery_resolution_rate 	0
scalar Network1000.node700 	rate_of_requesters 	1
scalar Network1000.node700 	number_of_resources 	55000
scalar Network1000.node700 	time_period 	1
scalar Network1000.node700 	number_of_messages 	17
scalar Network1000.node700 	discovery_latency 	6696
scalar Network1000.node700 	number_of_desired_resources 	20
scalar Network1000.node700 	query_homogenity_rate 	33.333333333333
scalar Network1000.node700 	qrecord_time 	11410
scalar Network1000.node700 	discovery_resolution_rate 	33.333333333333
scalar Network1000.node200 	rate_of_requesters 	1
scalar Network1000.node200 	number_of_resources 	55000
scalar Network1000.node200 	time_period 	1
scalar Network1000.node200 	number_of_messages 	2
scalar Network1000.node200 	discovery_latency 	6588
scalar Network1000.node200 	number_of_desired_resources 	20
scalar Network1000.node200 	query_homogenity_rate 	33.333333333333
scalar Network1000.node200 	qrecord_time 	11428
scalar Network1000.node200 	discovery_resolution_rate 	0
scalar Network1000.node550 	rate_of_requesters 	1
scalar Network1000.node550 	number_of_resources 	55000
scalar Network1000.node550 	time_period 	1
scalar Network1000.node550 	number_of_messages 	2
scalar Network1000.node550 	discovery_latency 	6672
scalar Network1000.node550 	number_of_desired_resources 	20
scalar Network1000.node550 	query_homogenity_rate 	33.333333333333
scalar Network1000.node550 	qrecord_time 	11458
scalar Network1000.node550 	discovery_resolution_rate 	0
scalar Network1000.node270 	rate_of_requesters 	1
scalar Network1000.node270 	number_of_resources 	55000
scalar Network1000.node270 	time_period 	1
scalar Network1000.node270 	number_of_messages 	16
scalar Network1000.node270 	discovery_latency 	6636
scalar Network1000.node270 	number_of_desired_resources 	20
scalar Network1000.node270 	query_homogenity_rate 	33.333333333333
scalar Network1000.node270 	qrecord_time 	11458
scalar Network1000.node270 	discovery_resolution_rate 	33.333333333333
scalar Network1000.node720 	rate_of_requesters 	1
scalar Network1000.node720 	number_of_resources 	55000
scalar Network1000.node720 	time_period 	4
scalar Network1000.node720 	number_of_messages 	2
scalar Network1000.node720 	discovery_latency 	6360
scalar Network1000.node720 	number_of_desired_resources 	20
scalar Network1000.node720 	query_homogenity_rate 	33.333333333333
scalar Network1000.node720 	qrecord_time 	11468.004877913
scalar Network1000.node720 	discovery_resolution_rate 	0
scalar Network1000.node510 	rate_of_requesters 	1
scalar Network1000.node510 	number_of_resources 	55000
scalar Network1000.node510 	time_period 	1
scalar Network1000.node510 	number_of_messages 	2
scalar Network1000.node510 	discovery_latency 	6624
scalar Network1000.node510 	number_of_desired_resources 	20
scalar Network1000.node510 	query_homogenity_rate 	33.333333333333
scalar Network1000.node510 	qrecord_time 	11476
scalar Network1000.node510 	discovery_resolution_rate 	0
scalar Network1000.node630 	rate_of_requesters 	1
scalar Network1000.node630 	number_of_resources 	55000
scalar Network1000.node630 	time_period 	3
scalar Network1000.node630 	number_of_messages 	2
scalar Network1000.node630 	discovery_latency 	6372
scalar Network1000.node630 	number_of_desired_resources 	20
scalar Network1000.node630 	query_homogenity_rate 	33.333333333333
scalar Network1000.node630 	qrecord_time 	11528.839572188
scalar Network1000.node630 	discovery_resolution_rate 	0
scalar Network1000.node170 	rate_of_requesters 	1
scalar Network1000.node170 	number_of_resources 	55000
scalar Network1000.node170 	time_period 	2
scalar Network1000.node170 	number_of_messages 	2
scalar Network1000.node170 	discovery_latency 	6420
scalar Network1000.node170 	number_of_desired_resources 	20
scalar Network1000.node170 	query_homogenity_rate 	33.333333333333
scalar Network1000.node170 	qrecord_time 	11529.165374653
scalar Network1000.node170 	discovery_resolution_rate 	0
scalar Network1000.node790 	rate_of_requesters 	1
scalar Network1000.node790 	number_of_resources 	55000
scalar Network1000.node790 	time_period 	2
scalar Network1000.node790 	number_of_messages 	2
scalar Network1000.node790 	discovery_latency 	6672
scalar Network1000.node790 	number_of_desired_resources 	20
scalar Network1000.node790 	query_homogenity_rate 	33.333333333333
scalar Network1000.node790 	qrecord_time 	11537.829123598
scalar Network1000.node790 	discovery_resolution_rate 	0
scalar Network1000.node420 	rate_of_requesters 	1
scalar Network1000.node420 	number_of_resources 	55000
scalar Network1000.node420 	time_period 	2
scalar Network1000.node420 	number_of_messages 	2
scalar Network1000.node420 	discovery_latency 	6420
scalar Network1000.node420 	number_of_desired_resources 	20
scalar Network1000.node420 	query_homogenity_rate 	33.333333333333
scalar Network1000.node420 	qrecord_time 	11562.223689273
scalar Network1000.node420 	discovery_resolution_rate 	0
scalar Network1000.node20 	rate_of_requesters 	1
scalar Network1000.node20 	number_of_resources 	55000
scalar Network1000.node20 	time_period 	3
scalar Network1000.node20 	number_of_messages 	2
scalar Network1000.node20 	discovery_latency 	6420
scalar Network1000.node20 	number_of_desired_resources 	20
scalar Network1000.node20 	query_homogenity_rate 	33.333333333333
scalar Network1000.node20 	qrecord_time 	11563.465660908
scalar Network1000.node20 	discovery_resolution_rate 	0
scalar Network1000.node150 	rate_of_requesters 	1
scalar Network1000.node150 	number_of_resources 	55000
scalar Network1000.node150 	time_period 	2
scalar Network1000.node150 	number_of_messages 	2
scalar Network1000.node150 	discovery_latency 	6426
scalar Network1000.node150 	number_of_desired_resources 	20
scalar Network1000.node150 	query_homogenity_rate 	33.333333333333
scalar Network1000.node150 	qrecord_time 	11583.237946764
scalar Network1000.node150 	discovery_resolution_rate 	0
scalar Network1000.node510 	rate_of_requesters 	1
scalar Network1000.node510 	number_of_resources 	55000
scalar Network1000.node510 	time_period 	2
scalar Network1000.node510 	number_of_messages 	2
scalar Network1000.node510 	discovery_latency 	6444
scalar Network1000.node510 	number_of_desired_resources 	20
scalar Network1000.node510 	query_homogenity_rate 	33.333333333333
scalar Network1000.node510 	qrecord_time 	11625.314130947
scalar Network1000.node510 	discovery_resolution_rate 	0
scalar Network1000.node500 	rate_of_requesters 	1
scalar Network1000.node500 	number_of_resources 	55000
scalar Network1000.node500 	time_period 	3
scalar Network1000.node500 	number_of_messages 	2
scalar Network1000.node500 	discovery_latency 	6534
scalar Network1000.node500 	number_of_desired_resources 	20
scalar Network1000.node500 	query_homogenity_rate 	33.333333333333
scalar Network1000.node500 	qrecord_time 	11644.105448651
scalar Network1000.node500 	discovery_resolution_rate 	0
scalar Network1000.node970 	rate_of_requesters 	1
scalar Network1000.node970 	number_of_resources 	55000
scalar Network1000.node970 	time_period 	2
scalar Network1000.node970 	number_of_messages 	2
scalar Network1000.node970 	discovery_latency 	6444
scalar Network1000.node970 	number_of_desired_resources 	20
scalar Network1000.node970 	query_homogenity_rate 	33.333333333333
scalar Network1000.node970 	qrecord_time 	11836.397417179
scalar Network1000.node970 	discovery_resolution_rate 	0
scalar Network1000.node60 	rate_of_requesters 	1
scalar Network1000.node60 	number_of_resources 	55000
scalar Network1000.node60 	time_period 	2
scalar Network1000.node60 	number_of_messages 	9
scalar Network1000.node60 	discovery_latency 	6552
scalar Network1000.node60 	number_of_desired_resources 	20
scalar Network1000.node60 	query_homogenity_rate 	33.333333333333
scalar Network1000.node60 	qrecord_time 	11856.313028136
scalar Network1000.node60 	discovery_resolution_rate 	33.333333333333
scalar Network1000.node180 	rate_of_requesters 	1
scalar Network1000.node180 	number_of_resources 	55000
scalar Network1000.node180 	time_period 	2
scalar Network1000.node180 	number_of_messages 	8
scalar Network1000.node180 	discovery_latency 	6576
scalar Network1000.node180 	number_of_desired_resources 	20
scalar Network1000.node180 	query_homogenity_rate 	33.333333333333
scalar Network1000.node180 	qrecord_time 	11885.459209159
scalar Network1000.node180 	discovery_resolution_rate 	33.333333333333
scalar Network1000.node20 	rate_of_requesters 	1
scalar Network1000.node20 	number_of_resources 	55000
scalar Network1000.node20 	time_period 	4
scalar Network1000.node20 	number_of_messages 	2
scalar Network1000.node20 	discovery_latency 	6492
scalar Network1000.node20 	number_of_desired_resources 	20
scalar Network1000.node20 	query_homogenity_rate 	33.333333333333
scalar Network1000.node20 	qrecord_time 	11897.015488418
scalar Network1000.node20 	discovery_resolution_rate 	0
scalar Network1000.node140 	rate_of_requesters 	1
scalar Network1000.node140 	number_of_resources 	55000
scalar Network1000.node140 	time_period 	2
scalar Network1000.node140 	number_of_messages 	2
scalar Network1000.node140 	discovery_latency 	6540
scalar Network1000.node140 	number_of_desired_resources 	20
scalar Network1000.node140 	query_homogenity_rate 	33.333333333333
scalar Network1000.node140 	qrecord_time 	11899.698421439
scalar Network1000.node140 	discovery_resolution_rate 	0
scalar Network1000.node230 	rate_of_requesters 	1
scalar Network1000.node230 	number_of_resources 	55000
scalar Network1000.node230 	time_period 	3
scalar Network1000.node230 	number_of_messages 	2
scalar Network1000.node230 	discovery_latency 	6456
scalar Network1000.node230 	number_of_desired_resources 	20
scalar Network1000.node230 	query_homogenity_rate 	33.333333333333
scalar Network1000.node230 	qrecord_time 	11965.682968912
scalar Network1000.node230 	discovery_resolution_rate 	0
scalar Network1000.node830 	rate_of_requesters 	1
scalar Network1000.node830 	number_of_resources 	55000
scalar Network1000.node830 	time_period 	2
scalar Network1000.node830 	number_of_messages 	2
scalar Network1000.node830 	discovery_latency 	6480
scalar Network1000.node830 	number_of_desired_resources 	20
scalar Network1000.node830 	query_homogenity_rate 	33.333333333333
scalar Network1000.node830 	qrecord_time 	11979.553122511
scalar Network1000.node830 	discovery_resolution_rate 	0
scalar Network1000.node880 	rate_of_requesters 	1
scalar Network1000.node880 	number_of_resources 	55000
scalar Network1000.node880 	time_period 	2
scalar Network1000.node880 	number_of_messages 	2
scalar Network1000.node880 	discovery_latency 	6504
scalar Network1000.node880 	number_of_desired_resources 	20
scalar Network1000.node880 	query_homogenity_rate 	33.333333333333
scalar Network1000.node880 	qrecord_time 	12005.364920202
scalar Network1000.node880 	discovery_resolution_rate 	0
scalar Network1000.node0 	rate_of_requesters 	1
scalar Network1000.node0 	number_of_resources 	55000
scalar Network1000.node0 	time_period 	2
scalar Network1000.node0 	number_of_messages 	0
scalar Network1000.node0 	discovery_latency 	6414
scalar Network1000.node0 	number_of_desired_resources 	20
scalar Network1000.node0 	query_homogenity_rate 	33.333333333333
scalar Network1000.node0 	qrecord_time 	12044.331364326
scalar Network1000.node0 	discovery_resolution_rate 	0
scalar Network1000.node370 	rate_of_requesters 	1
scalar Network1000.node370 	number_of_resources 	55000
scalar Network1000.node370 	time_period 	2
scalar Network1000.node370 	number_of_messages 	2
scalar Network1000.node370 	discovery_latency 	6378
scalar Network1000.node370 	number_of_desired_resources 	20
scalar Network1000.node370 	query_homogenity_rate 	33.333333333333
scalar Network1000.node370 	qrecord_time 	12121.926745602
scalar Network1000.node370 	discovery_resolution_rate 	0
scalar Network1000.node270 	rate_of_requesters 	1
scalar Network1000.node270 	number_of_resources 	55000
scalar Network1000.node270 	time_period 	2
scalar Network1000.node270 	number_of_messages 	2
scalar Network1000.node270 	discovery_latency 	6564
scalar Network1000.node270 	number_of_desired_resources 	20
scalar Network1000.node270 	query_homogenity_rate 	33.333333333333
scalar Network1000.node270 	qrecord_time 	12150.660548207
scalar Network1000.node270 	discovery_resolution_rate 	0
scalar Network1000.node100 	rate_of_requesters 	1
scalar Network1000.node100 	number_of_resources 	55000
scalar Network1000.node100 	time_period 	2
scalar Network1000.node100 	number_of_messages 	2
scalar Network1000.node100 	discovery_latency 	6444
scalar Network1000.node100 	number_of_desired_resources 	20
scalar Network1000.node100 	query_homogenity_rate 	33.333333333333
scalar Network1000.node100 	qrecord_time 	12160.328496097
scalar Network1000.node100 	discovery_resolution_rate 	0
scalar Network1000.node980 	rate_of_requesters 	1
scalar Network1000.node980 	number_of_resources 	55000
scalar Network1000.node980 	time_period 	2
scalar Network1000.node980 	number_of_messages 	2
scalar Network1000.node980 	discovery_latency 	6384
scalar Network1000.node980 	number_of_desired_resources 	20
scalar Network1000.node980 	query_homogenity_rate 	33.333333333333
scalar Network1000.node980 	qrecord_time 	12274.014425605
scalar Network1000.node980 	discovery_resolution_rate 	0
scalar Network1000.node680 	rate_of_requesters 	1
scalar Network1000.node680 	number_of_resources 	55000
scalar Network1000.node680 	time_period 	2
scalar Network1000.node680 	number_of_messages 	2
scalar Network1000.node680 	discovery_latency 	6624
scalar Network1000.node680 	number_of_desired_resources 	20
scalar Network1000.node680 	query_homogenity_rate 	33.333333333333
scalar Network1000.node680 	qrecord_time 	12316.113003404
scalar Network1000.node680 	discovery_resolution_rate 	0
scalar Network1000.node250 	rate_of_requesters 	1
scalar Network1000.node250 	number_of_resources 	55000
scalar Network1000.node250 	time_period 	2
scalar Network1000.node250 	number_of_messages 	2
scalar Network1000.node250 	discovery_latency 	6486
scalar Network1000.node250 	number_of_desired_resources 	20
scalar Network1000.node250 	query_homogenity_rate 	33.333333333333
scalar Network1000.node250 	qrecord_time 	12321.879203831
scalar Network1000.node250 	discovery_resolution_rate 	0
scalar Network1000.node520 	rate_of_requesters 	1
scalar Network1000.node520 	number_of_resources 	55000
scalar Network1000.node520 	time_period 	2
scalar Network1000.node520 	number_of_messages 	2
scalar Network1000.node520 	discovery_latency 	6264
scalar Network1000.node520 	number_of_desired_resources 	20
scalar Network1000.node520 	query_homogenity_rate 	33.333333333333
scalar Network1000.node520 	qrecord_time 	12342.818308111
scalar Network1000.node520 	discovery_resolution_rate 	0
scalar Network1000.node260 	rate_of_requesters 	1
scalar Network1000.node260 	number_of_resources 	55000
scalar Network1000.node260 	time_period 	2
scalar Network1000.node260 	number_of_messages 	2
scalar Network1000.node260 	discovery_latency 	6528
scalar Network1000.node260 	number_of_desired_resources 	20
scalar Network1000.node260 	query_homogenity_rate 	33.333333333333
scalar Network1000.node260 	qrecord_time 	12347.009663408
scalar Network1000.node260 	discovery_resolution_rate 	0
scalar Network1000.node780 	rate_of_requesters 	1
scalar Network1000.node780 	number_of_resources 	55000
scalar Network1000.node780 	time_period 	2
scalar Network1000.node780 	number_of_messages 	2
scalar Network1000.node780 	discovery_latency 	6324
scalar Network1000.node780 	number_of_desired_resources 	20
scalar Network1000.node780 	query_homogenity_rate 	33.333333333333
scalar Network1000.node780 	qrecord_time 	12425.554703547
scalar Network1000.node780 	discovery_resolution_rate 	0
scalar Network1000.node600 	rate_of_requesters 	1
scalar Network1000.node600 	number_of_resources 	55000
scalar Network1000.node600 	time_period 	2
scalar Network1000.node600 	number_of_messages 	0
scalar Network1000.node600 	discovery_latency 	6468
scalar Network1000.node600 	number_of_desired_resources 	20
scalar Network1000.node600 	query_homogenity_rate 	33.333333333333
scalar Network1000.node600 	qrecord_time 	12627.24068787
scalar Network1000.node600 	discovery_resolution_rate 	0
scalar Network1000.node570 	rate_of_requesters 	1
scalar Network1000.node570 	number_of_resources 	55000
scalar Network1000.node570 	time_period 	2
scalar Network1000.node570 	number_of_messages 	2
scalar Network1000.node570 	discovery_latency 	6684
scalar Network1000.node570 	number_of_desired_resources 	20
scalar Network1000.node570 	query_homogenity_rate 	33.333333333333
scalar Network1000.node570 	qrecord_time 	12655.684508862
scalar Network1000.node570 	discovery_resolution_rate 	0
scalar Network1000.node710 	rate_of_requesters 	1
scalar Network1000.node710 	number_of_resources 	55000
scalar Network1000.node710 	time_period 	2
scalar Network1000.node710 	number_of_messages 	2
scalar Network1000.node710 	discovery_latency 	6348
scalar Network1000.node710 	number_of_desired_resources 	20
scalar Network1000.node710 	query_homogenity_rate 	33.333333333333
scalar Network1000.node710 	qrecord_time 	12705.237918998
scalar Network1000.node710 	discovery_resolution_rate 	0
scalar Network1000.node920 	rate_of_requesters 	1
scalar Network1000.node920 	number_of_resources 	55000
scalar Network1000.node920 	time_period 	2
scalar Network1000.node920 	number_of_messages 	2
scalar Network1000.node920 	discovery_latency 	6504
scalar Network1000.node920 	number_of_desired_resources 	20
scalar Network1000.node920 	query_homogenity_rate 	33.333333333333
scalar Network1000.node920 	qrecord_time 	12737.620354079
scalar Network1000.node920 	discovery_resolution_rate 	0
scalar Network1000.node770 	rate_of_requesters 	1
scalar Network1000.node770 	number_of_resources 	55000
scalar Network1000.node770 	time_period 	2
scalar Network1000.node770 	number_of_messages 	0
scalar Network1000.node770 	discovery_latency 	6504
scalar Network1000.node770 	number_of_desired_resources 	20
scalar Network1000.node770 	query_homogenity_rate 	33.333333333333
scalar Network1000.node770 	qrecord_time 	12756.343042677
scalar Network1000.node770 	discovery_resolution_rate 	0
scalar Network1000.node170 	rate_of_requesters 	1
scalar Network1000.node170 	number_of_resources 	55000
scalar Network1000.node170 	time_period 	3
scalar Network1000.node170 	number_of_messages 	2
scalar Network1000.node170 	discovery_latency 	6408
scalar Network1000.node170 	number_of_desired_resources 	20
scalar Network1000.node170 	query_homogenity_rate 	33.333333333333
scalar Network1000.node170 	qrecord_time 	12763.533294751
scalar Network1000.node170 	discovery_resolution_rate 	0
scalar Network1000.node280 	rate_of_requesters 	1
scalar Network1000.node280 	number_of_resources 	55000
scalar Network1000.node280 	time_period 	2
scalar Network1000.node280 	number_of_messages 	2
scalar Network1000.node280 	discovery_latency 	6348
scalar Network1000.node280 	number_of_desired_resources 	20
scalar Network1000.node280 	query_homogenity_rate 	33.333333333333
scalar Network1000.node280 	qrecord_time 	12817.704513803
scalar Network1000.node280 	discovery_resolution_rate 	0
scalar Network1000.node330 	rate_of_requesters 	1
scalar Network1000.node330 	number_of_resources 	55000
scalar Network1000.node330 	time_period 	2
scalar Network1000.node330 	number_of_messages 	2
scalar Network1000.node330 	discovery_latency 	6516
scalar Network1000.node330 	number_of_desired_resources 	20
scalar Network1000.node330 	query_homogenity_rate 	33.333333333333
scalar Network1000.node330 	qrecord_time 	12873.724564703
scalar Network1000.node330 	discovery_resolution_rate 	0
scalar Network1000.node900 	rate_of_requesters 	1
scalar Network1000.node900 	number_of_resources 	55000
scalar Network1000.node900 	time_period 	2
scalar Network1000.node900 	number_of_messages 	2
scalar Network1000.node900 	discovery_latency 	6492
scalar Network1000.node900 	number_of_desired_resources 	20
scalar Network1000.node900 	query_homogenity_rate 	33.333333333333
scalar Network1000.node900 	qrecord_time 	12898.573915672
scalar Network1000.node900 	discovery_resolution_rate 	0
scalar Network1000.node620 	rate_of_requesters 	1
scalar Network1000.node620 	number_of_resources 	55000
scalar Network1000.node620 	time_period 	2
scalar Network1000.node620 	number_of_messages 	2
scalar Network1000.node620 	discovery_latency 	6402
scalar Network1000.node620 	number_of_desired_resources 	20
scalar Network1000.node620 	query_homogenity_rate 	33.333333333333
scalar Network1000.node620 	qrecord_time 	12941.938253099
scalar Network1000.node620 	discovery_resolution_rate 	0
scalar Network1000.node150 	rate_of_requesters 	1
scalar Network1000.node150 	number_of_resources 	55000
scalar Network1000.node150 	time_period 	3
scalar Network1000.node150 	number_of_messages 	2
scalar Network1000.node150 	discovery_latency 	6456
scalar Network1000.node150 	number_of_desired_resources 	20
scalar Network1000.node150 	query_homogenity_rate 	33.333333333333
scalar Network1000.node150 	qrecord_time 	12947.557331629
scalar Network1000.node150 	discovery_resolution_rate 	0
scalar Network1000.node190 	rate_of_requesters 	1
scalar Network1000.node190 	number_of_resources 	55000
scalar Network1000.node190 	time_period 	2
scalar Network1000.node190 	number_of_messages 	2
scalar Network1000.node190 	discovery_latency 	6408
scalar Network1000.node190 	number_of_desired_resources 	20
scalar Network1000.node190 	query_homogenity_rate 	33.333333333333
scalar Network1000.node190 	qrecord_time 	13013.815801425
scalar Network1000.node190 	discovery_resolution_rate 	0
scalar Network1000.node450 	rate_of_requesters 	1
scalar Network1000.node450 	number_of_resources 	55000
scalar Network1000.node450 	time_period 	2
scalar Network1000.node450 	number_of_messages 	46
scalar Network1000.node450 	discovery_latency 	6438
scalar Network1000.node450 	number_of_desired_resources 	20
scalar Network1000.node450 	query_homogenity_rate 	33.333333333333
scalar Network1000.node450 	qrecord_time 	13015.852015593
scalar Network1000.node450 	discovery_resolution_rate 	33.333333333333
scalar Network1000.node250 	rate_of_requesters 	1
scalar Network1000.node250 	number_of_resources 	55000
scalar Network1000.node250 	time_period 	3
scalar Network1000.node250 	number_of_messages 	2
scalar Network1000.node250 	discovery_latency 	6390
scalar Network1000.node250 	number_of_desired_resources 	20
scalar Network1000.node250 	query_homogenity_rate 	33.333333333333
scalar Network1000.node250 	qrecord_time 	13049.042782673
scalar Network1000.node250 	discovery_resolution_rate 	0
scalar Network1000.node520 	rate_of_requesters 	1
scalar Network1000.node520 	number_of_resources 	55000
scalar Network1000.node520 	time_period 	3
scalar Network1000.node520 	number_of_messages 	2
scalar Network1000.node520 	discovery_latency 	6414
scalar Network1000.node520 	number_of_desired_resources 	20
scalar Network1000.node520 	query_homogenity_rate 	33.333333333333
scalar Network1000.node520 	qrecord_time 	13097.066229948
scalar Network1000.node520 	discovery_resolution_rate 	0
scalar Network1000.node780 	rate_of_requesters 	1
scalar Network1000.node780 	number_of_resources 	55000
scalar Network1000.node780 	time_period 	3
scalar Network1000.node780 	number_of_messages 	2
scalar Network1000.node780 	discovery_latency 	6636
scalar Network1000.node780 	number_of_desired_resources 	20
scalar Network1000.node780 	query_homogenity_rate 	33.333333333333
scalar Network1000.node780 	qrecord_time 	13124.027211481
scalar Network1000.node780 	discovery_resolution_rate 	0
scalar Network1000.node60 	rate_of_requesters 	1
scalar Network1000.node60 	number_of_resources 	55000
scalar Network1000.node60 	time_period 	3
scalar Network1000.node60 	number_of_messages 	2
scalar Network1000.node60 	discovery_latency 	6492
scalar Network1000.node60 	number_of_desired_resources 	20
scalar Network1000.node60 	query_homogenity_rate 	33.333333333333
scalar Network1000.node60 	qrecord_time 	13189.044403011
scalar Network1000.node60 	discovery_resolution_rate 	0
scalar Network1000.node310 	rate_of_requesters 	1
scalar Network1000.node310 	number_of_resources 	55000
scalar Network1000.node310 	time_period 	2
scalar Network1000.node310 	number_of_messages 	2
scalar Network1000.node310 	discovery_latency 	6372
scalar Network1000.node310 	number_of_desired_resources 	20
scalar Network1000.node310 	query_homogenity_rate 	33.333333333333
scalar Network1000.node310 	qrecord_time 	13218.502931536
scalar Network1000.node310 	discovery_resolution_rate 	0
scalar Network1000.node70 	rate_of_requesters 	1
scalar Network1000.node70 	number_of_resources 	55000
scalar Network1000.node70 	time_period 	3
scalar Network1000.node70 	number_of_messages 	2
scalar Network1000.node70 	discovery_latency 	6456
scalar Network1000.node70 	number_of_desired_resources 	20
scalar Network1000.node70 	query_homogenity_rate 	33.333333333333
scalar Network1000.node70 	qrecord_time 	13228.862547337
scalar Network1000.node70 	discovery_resolution_rate 	0
scalar Network1000.node490 	rate_of_requesters 	1
scalar Network1000.node490 	number_of_resources 	55000
scalar Network1000.node490 	time_period 	2
scalar Network1000.node490 	number_of_messages 	0
scalar Network1000.node490 	discovery_latency 	6396
scalar Network1000.node490 	number_of_desired_resources 	20
scalar Network1000.node490 	query_homogenity_rate 	33.333333333333
scalar Network1000.node490 	qrecord_time 	13237.842601986
scalar Network1000.node490 	discovery_resolution_rate 	0
scalar Network1000.node80 	rate_of_requesters 	1
scalar Network1000.node80 	number_of_resources 	55000
scalar Network1000.node80 	time_period 	2
scalar Network1000.node80 	number_of_messages 	18
scalar Network1000.node80 	discovery_latency 	6324
scalar Network1000.node80 	number_of_desired_resources 	20
scalar Network1000.node80 	query_homogenity_rate 	33.333333333333
scalar Network1000.node80 	qrecord_time 	13276.918847757
scalar Network1000.node80 	discovery_resolution_rate 	33.333333333333
scalar Network1000.node780 	rate_of_requesters 	1
scalar Network1000.node780 	number_of_resources 	55000
scalar Network1000.node780 	time_period 	4
scalar Network1000.node780 	number_of_messages 	2
scalar Network1000.node780 	discovery_latency 	6432
scalar Network1000.node780 	number_of_desired_resources 	20
scalar Network1000.node780 	query_homogenity_rate 	33.333333333333
scalar Network1000.node780 	qrecord_time 	13283.218508138
scalar Network1000.node780 	discovery_resolution_rate 	0
scalar Network1000.node860 	rate_of_requesters 	1
scalar Network1000.node860 	number_of_resources 	55000
scalar Network1000.node860 	time_period 	2
scalar Network1000.node860 	number_of_messages 	2
scalar Network1000.node860 	discovery_latency 	6336
scalar Network1000.node860 	number_of_desired_resources 	20
scalar Network1000.node860 	query_homogenity_rate 	33.333333333333
scalar Network1000.node860 	qrecord_time 	13433.368601328
scalar Network1000.node860 	discovery_resolution_rate 	0
scalar Network1000.node670 	rate_of_requesters 	1
scalar Network1000.node670 	number_of_resources 	55000
scalar Network1000.node670 	time_period 	2
scalar Network1000.node670 	number_of_messages 	25
scalar Network1000.node670 	discovery_latency 	6426
scalar Network1000.node670 	number_of_desired_resources 	20
scalar Network1000.node670 	query_homogenity_rate 	33.333333333333
scalar Network1000.node670 	qrecord_time 	13453.016610885
scalar Network1000.node670 	discovery_resolution_rate 	33.333333333333
scalar Network1000.node30 	rate_of_requesters 	1
scalar Network1000.node30 	number_of_resources 	55000
scalar Network1000.node30 	time_period 	2
scalar Network1000.node30 	number_of_messages 	2
scalar Network1000.node30 	discovery_latency 	6684
scalar Network1000.node30 	number_of_desired_resources 	20
scalar Network1000.node30 	query_homogenity_rate 	33.333333333333
scalar Network1000.node30 	qrecord_time 	13509.187846736
scalar Network1000.node30 	discovery_resolution_rate 	0
scalar Network1000.node560 	rate_of_requesters 	1
scalar Network1000.node560 	number_of_resources 	55000
scalar Network1000.node560 	time_period 	2
scalar Network1000.node560 	number_of_messages 	2
scalar Network1000.node560 	discovery_latency 	6468
scalar Network1000.node560 	number_of_desired_resources 	20
scalar Network1000.node560 	query_homogenity_rate 	33.333333333333
scalar Network1000.node560 	qrecord_time 	13548.576659827
[...]
scalar Network1000.node240 	rate_of_requesters 	1
scalar Network1000.node240 	number_of_resources 	55000
scalar Network1000.node240 	time_period 	10
scalar Network1000.node240 	number_of_messages 	588
scalar Network1000.node240 	discovery_latency 	6354
scalar Network1000.node240 	number_of_desired_resources 	20
scalar Network1000.node240 	query_homogenity_rate 	33.333333333333
scalar Network1000.node240 	qrecord_time 	54271.702684313
scalar Network1000.node240 	discovery_resolution_rate 	66.666666666667
scalar Network1000.node220 	rate_of_requesters 	1
scalar Network1000.node220 	number_of_resources 	55000
scalar Network1000.node220 	time_period 	10
scalar Network1000.node220 	number_of_messages 	2
scalar Network1000.node220 	discovery_latency 	6564
scalar Network1000.node220 	number_of_desired_resources 	20
scalar Network1000.node220 	query_homogenity_rate 	33.333333333333
scalar Network1000.node220 	qrecord_time 	54564.205771495
scalar Network1000.node220 	discovery_resolution_rate 	0
scalar Network1000.node80 	rate_of_requesters 	1
scalar Network1000.node80 	number_of_resources 	55000
scalar Network1000.node80 	time_period 	10
scalar Network1000.node80 	number_of_messages 	19
scalar Network1000.node80 	discovery_latency 	144
scalar Network1000.node80 	number_of_desired_resources 	20
scalar Network1000.node80 	query_homogenity_rate 	33.333333333333
scalar Network1000.node80 	qrecord_time 	54625.647888553
scalar Network1000.node80 	discovery_resolution_rate 	100
scalar Network1000.node100 	rate_of_requesters 	1
scalar Network1000.node100 	number_of_resources 	55000
scalar Network1000.node100 	time_period 	9
scalar Network1000.node100 	number_of_messages 	2
scalar Network1000.node100 	discovery_latency 	6618
scalar Network1000.node100 	number_of_desired_resources 	20
scalar Network1000.node100 	query_homogenity_rate 	33.333333333333
scalar Network1000.node100 	qrecord_time 	54641.763834207
scalar Network1000.node100 	discovery_resolution_rate 	0
scalar Network1000.node600 	rate_of_requesters 	1
scalar Network1000.node600 	number_of_resources 	55000
scalar Network1000.node600 	time_period 	9
scalar Network1000.node600 	number_of_messages 	26
scalar Network1000.node600 	discovery_latency 	168
scalar Network1000.node600 	number_of_desired_resources 	20
scalar Network1000.node600 	query_homogenity_rate 	33.333333333333
scalar Network1000.node600 	qrecord_time 	54690.626157147
scalar Network1000.node600 	discovery_resolution_rate 	100
scalar Network1000.node860 	rate_of_requesters 	1
scalar Network1000.node860 	number_of_resources 	55000
scalar Network1000.node860 	time_period 	8
scalar Network1000.node860 	number_of_messages 	32
scalar Network1000.node860 	discovery_latency 	6270
scalar Network1000.node860 	number_of_desired_resources 	20
scalar Network1000.node860 	query_homogenity_rate 	33.333333333333
scalar Network1000.node860 	qrecord_time 	54729.117969997
scalar Network1000.node860 	discovery_resolution_rate 	66.666666666667
scalar Network1000.node540 	rate_of_requesters 	1
scalar Network1000.node540 	number_of_resources 	55000
scalar Network1000.node540 	time_period 	10
scalar Network1000.node540 	number_of_messages 	2
scalar Network1000.node540 	discovery_latency 	6486
scalar Network1000.node540 	number_of_desired_resources 	20
scalar Network1000.node540 	query_homogenity_rate 	33.333333333333
scalar Network1000.node540 	qrecord_time 	54801.345805363
scalar Network1000.node540 	discovery_resolution_rate 	0
scalar Network1000.node400 	rate_of_requesters 	1
scalar Network1000.node400 	number_of_resources 	55000
scalar Network1000.node400 	time_period 	10
scalar Network1000.node400 	number_of_messages 	2
scalar Network1000.node400 	discovery_latency 	6426
scalar Network1000.node400 	number_of_desired_resources 	20
scalar Network1000.node400 	query_homogenity_rate 	33.333333333333
scalar Network1000.node400 	qrecord_time 	54894.890681581
scalar Network1000.node400 	discovery_resolution_rate 	0
scalar Network1000.node820 	rate_of_requesters 	1
scalar Network1000.node820 	number_of_resources 	55000
scalar Network1000.node820 	time_period 	10
scalar Network1000.node820 	number_of_messages 	90
scalar Network1000.node820 	discovery_latency 	1080
scalar Network1000.node820 	number_of_desired_resources 	20
scalar Network1000.node820 	query_homogenity_rate 	33.333333333333
scalar Network1000.node820 	qrecord_time 	54897.069883248
scalar Network1000.node820 	discovery_resolution_rate 	100
scalar Network1000.node460 	rate_of_requesters 	1
scalar Network1000.node460 	number_of_resources 	55000
scalar Network1000.node460 	time_period 	8
scalar Network1000.node460 	number_of_messages 	82
scalar Network1000.node460 	discovery_latency 	984
scalar Network1000.node460 	number_of_desired_resources 	20
scalar Network1000.node460 	query_homogenity_rate 	33.333333333333
scalar Network1000.node460 	qrecord_time 	55038.819271763
scalar Network1000.node460 	discovery_resolution_rate 	100
scalar Network1000.node860 	rate_of_requesters 	1
scalar Network1000.node860 	number_of_resources 	55000
scalar Network1000.node860 	time_period 	9
scalar Network1000.node860 	number_of_messages 	24
scalar Network1000.node860 	discovery_latency 	192
scalar Network1000.node860 	number_of_desired_resources 	20
scalar Network1000.node860 	query_homogenity_rate 	33.333333333333
scalar Network1000.node860 	qrecord_time 	55374.974008912
scalar Network1000.node860 	discovery_resolution_rate 	100
scalar Network1000.node800 	rate_of_requesters 	1
scalar Network1000.node800 	number_of_resources 	55000
scalar Network1000.node800 	time_period 	10
scalar Network1000.node800 	number_of_messages 	24
scalar Network1000.node800 	discovery_latency 	180
scalar Network1000.node800 	number_of_desired_resources 	20
scalar Network1000.node800 	query_homogenity_rate 	33.333333333333
scalar Network1000.node800 	qrecord_time 	55739.342970157
scalar Network1000.node800 	discovery_resolution_rate 	100
scalar Network1000.node170 	rate_of_requesters 	1
scalar Network1000.node170 	number_of_resources 	55000
scalar Network1000.node170 	time_period 	9
scalar Network1000.node170 	number_of_messages 	20
scalar Network1000.node170 	discovery_latency 	156
scalar Network1000.node170 	number_of_desired_resources 	20
scalar Network1000.node170 	query_homogenity_rate 	33.333333333333
scalar Network1000.node170 	qrecord_time 	56013.469704584
scalar Network1000.node170 	discovery_resolution_rate 	100
scalar Network1000.node190 	rate_of_requesters 	1
scalar Network1000.node190 	number_of_resources 	55000
scalar Network1000.node190 	time_period 	9
scalar Network1000.node190 	number_of_messages 	25
scalar Network1000.node190 	discovery_latency 	228
scalar Network1000.node190 	number_of_desired_resources 	20
scalar Network1000.node190 	query_homogenity_rate 	33.333333333333
scalar Network1000.node190 	qrecord_time 	56018.826230988
scalar Network1000.node190 	discovery_resolution_rate 	100
scalar Network1000.node360 	rate_of_requesters 	1
scalar Network1000.node360 	number_of_resources 	55000
scalar Network1000.node360 	time_period 	10
scalar Network1000.node360 	number_of_messages 	38
scalar Network1000.node360 	discovery_latency 	336
scalar Network1000.node360 	number_of_desired_resources 	20
scalar Network1000.node360 	query_homogenity_rate 	33.333333333333
scalar Network1000.node360 	qrecord_time 	56090.805471621
scalar Network1000.node360 	discovery_resolution_rate 	100
scalar Network1000.node970 	rate_of_requesters 	1
scalar Network1000.node970 	number_of_resources 	55000
scalar Network1000.node970 	time_period 	10
scalar Network1000.node970 	number_of_messages 	304
scalar Network1000.node970 	discovery_latency 	6240
scalar Network1000.node970 	number_of_desired_resources 	20
scalar Network1000.node970 	query_homogenity_rate 	33.333333333333
scalar Network1000.node970 	qrecord_time 	56269.058257013
scalar Network1000.node970 	discovery_resolution_rate 	83.333333333333
scalar Network1000.node460 	rate_of_requesters 	1
scalar Network1000.node460 	number_of_resources 	55000
scalar Network1000.node460 	time_period 	9
scalar Network1000.node460 	number_of_messages 	22
scalar Network1000.node460 	discovery_latency 	132
scalar Network1000.node460 	number_of_desired_resources 	20
scalar Network1000.node460 	query_homogenity_rate 	33.333333333333
scalar Network1000.node460 	qrecord_time 	56751.314783131
scalar Network1000.node460 	discovery_resolution_rate 	100
scalar Network1000.node530 	rate_of_requesters 	1
scalar Network1000.node530 	number_of_resources 	55000
scalar Network1000.node530 	time_period 	9
scalar Network1000.node530 	number_of_messages 	37
scalar Network1000.node530 	discovery_latency 	348
scalar Network1000.node530 	number_of_desired_resources 	20
scalar Network1000.node530 	query_homogenity_rate 	33.333333333333
scalar Network1000.node530 	qrecord_time 	57125.40519665
scalar Network1000.node530 	discovery_resolution_rate 	100
scalar Network1000.node550 	rate_of_requesters 	1
scalar Network1000.node550 	number_of_resources 	55000
scalar Network1000.node550 	time_period 	9
scalar Network1000.node550 	number_of_messages 	39
scalar Network1000.node550 	discovery_latency 	264
scalar Network1000.node550 	number_of_desired_resources 	20
scalar Network1000.node550 	query_homogenity_rate 	33.333333333333
scalar Network1000.node550 	qrecord_time 	57368.276187968
scalar Network1000.node550 	discovery_resolution_rate 	100
scalar Network1000.node810 	rate_of_requesters 	1
scalar Network1000.node810 	number_of_resources 	55000
scalar Network1000.node810 	time_period 	9
scalar Network1000.node810 	number_of_messages 	312
scalar Network1000.node810 	discovery_latency 	6240
scalar Network1000.node810 	number_of_desired_resources 	20
scalar Network1000.node810 	query_homogenity_rate 	33.333333333333
scalar Network1000.node810 	qrecord_time 	57395.743829836
scalar Network1000.node810 	discovery_resolution_rate 	83.333333333333
scalar Network1000.node870 	rate_of_requesters 	1
scalar Network1000.node870 	number_of_resources 	55000
scalar Network1000.node870 	time_period 	10
scalar Network1000.node870 	number_of_messages 	34
scalar Network1000.node870 	discovery_latency 	6204
scalar Network1000.node870 	number_of_desired_resources 	20
scalar Network1000.node870 	query_homogenity_rate 	33.333333333333
scalar Network1000.node870 	qrecord_time 	57727.235440359
scalar Network1000.node870 	discovery_resolution_rate 	66.666666666667
scalar Network1000.node200 	rate_of_requesters 	1
scalar Network1000.node200 	number_of_resources 	55000
scalar Network1000.node200 	time_period 	9
scalar Network1000.node200 	number_of_messages 	20
scalar Network1000.node200 	discovery_latency 	120
scalar Network1000.node200 	number_of_desired_resources 	20
scalar Network1000.node200 	query_homogenity_rate 	33.333333333333
scalar Network1000.node200 	qrecord_time 	58087.815486441
scalar Network1000.node200 	discovery_resolution_rate 	100
scalar Network1000.node990 	rate_of_requesters 	1
scalar Network1000.node990 	number_of_resources 	55000
scalar Network1000.node990 	time_period 	9
scalar Network1000.node990 	number_of_messages 	29
scalar Network1000.node990 	discovery_latency 	276
scalar Network1000.node990 	number_of_desired_resources 	20
scalar Network1000.node990 	query_homogenity_rate 	33.333333333333
scalar Network1000.node990 	qrecord_time 	58270.049964432
scalar Network1000.node990 	discovery_resolution_rate 	100
scalar Network1000.node130 	rate_of_requesters 	1
scalar Network1000.node130 	number_of_resources 	55000
scalar Network1000.node130 	time_period 	10
scalar Network1000.node130 	number_of_messages 	20
scalar Network1000.node130 	discovery_latency 	144
scalar Network1000.node130 	number_of_desired_resources 	20
scalar Network1000.node130 	query_homogenity_rate 	33.333333333333
scalar Network1000.node130 	qrecord_time 	58361.451006465
scalar Network1000.node130 	discovery_resolution_rate 	100
scalar Network1000.node530 	rate_of_requesters 	1
scalar Network1000.node530 	number_of_resources 	55000
scalar Network1000.node530 	time_period 	10
scalar Network1000.node530 	number_of_messages 	26
scalar Network1000.node530 	discovery_latency 	192
scalar Network1000.node530 	number_of_desired_resources 	20
scalar Network1000.node530 	query_homogenity_rate 	33.333333333333
scalar Network1000.node530 	qrecord_time 	58573.293096343
scalar Network1000.node530 	discovery_resolution_rate 	100
scalar Network1000.node200 	rate_of_requesters 	1
scalar Network1000.node200 	number_of_resources 	55000
scalar Network1000.node200 	time_period 	7
scalar Network1000.node200 	number_of_messages 	26
scalar Network1000.node200 	discovery_latency 	6180
scalar Network1000.node200 	number_of_desired_resources 	20
scalar Network1000.node200 	query_homogenity_rate 	33.333333333333
scalar Network1000.node200 	qrecord_time 	58810.375474452
scalar Network1000.node200 	discovery_resolution_rate 	66.666666666667
scalar Network1000.node810 	rate_of_requesters 	1
scalar Network1000.node810 	number_of_resources 	55000
scalar Network1000.node810 	time_period 	10
scalar Network1000.node810 	number_of_messages 	40
scalar Network1000.node810 	discovery_latency 	6396
scalar Network1000.node810 	number_of_desired_resources 	20
scalar Network1000.node810 	query_homogenity_rate 	33.333333333333
scalar Network1000.node810 	qrecord_time 	58933.367756606
scalar Network1000.node810 	discovery_resolution_rate 	66.666666666667
scalar Network1000.node990 	rate_of_requesters 	1
scalar Network1000.node990 	number_of_resources 	55000
scalar Network1000.node990 	time_period 	10
scalar Network1000.node990 	number_of_messages 	23
scalar Network1000.node990 	discovery_latency 	192
scalar Network1000.node990 	number_of_desired_resources 	20
scalar Network1000.node990 	query_homogenity_rate 	33.333333333333
scalar Network1000.node990 	qrecord_time 	59236.038541429
scalar Network1000.node990 	discovery_resolution_rate 	100
scalar Network1000.node840 	rate_of_requesters 	1
scalar Network1000.node840 	number_of_resources 	55000
scalar Network1000.node840 	time_period 	9
scalar Network1000.node840 	number_of_messages 	26
scalar Network1000.node840 	discovery_latency 	132
scalar Network1000.node840 	number_of_desired_resources 	20
scalar Network1000.node840 	query_homogenity_rate 	33.333333333333
scalar Network1000.node840 	qrecord_time 	59542.97453365
scalar Network1000.node840 	discovery_resolution_rate 	100
scalar Network1000.node840 	rate_of_requesters 	1
scalar Network1000.node840 	number_of_resources 	55000
scalar Network1000.node840 	time_period 	10
scalar Network1000.node840 	number_of_messages 	28
scalar Network1000.node840 	discovery_latency 	180
scalar Network1000.node840 	number_of_desired_resources 	20
scalar Network1000.node840 	query_homogenity_rate 	33.333333333333
scalar Network1000.node840 	qrecord_time 	59606.563148043
scalar Network1000.node840 	discovery_resolution_rate 	100
scalar Network1000.node760 	rate_of_requesters 	1
scalar Network1000.node760 	number_of_resources 	55000
scalar Network1000.node760 	time_period 	9
scalar Network1000.node760 	number_of_messages 	27
scalar Network1000.node760 	discovery_latency 	288
scalar Network1000.node760 	number_of_desired_resources 	20
scalar Network1000.node760 	query_homogenity_rate 	33.333333333333
scalar Network1000.node760 	qrecord_time 	59744.116918726
scalar Network1000.node760 	discovery_resolution_rate 	100
scalar Network1000.node760 	rate_of_requesters 	1
scalar Network1000.node760 	number_of_resources 	55000
scalar Network1000.node760 	time_period 	10
scalar Network1000.node760 	number_of_messages 	26
scalar Network1000.node760 	discovery_latency 	252
scalar Network1000.node760 	number_of_desired_resources 	20
scalar Network1000.node760 	query_homogenity_rate 	33.333333333333
scalar Network1000.node760 	qrecord_time 	59989.664318215
scalar Network1000.node760 	discovery_resolution_rate 	100
scalar Network1000.node200 	rate_of_requesters 	1
scalar Network1000.node200 	number_of_resources 	55000
scalar Network1000.node200 	time_period 	10
scalar Network1000.node200 	number_of_messages 	27
scalar Network1000.node200 	discovery_latency 	192
scalar Network1000.node200 	number_of_desired_resources 	20
scalar Network1000.node200 	query_homogenity_rate 	33.333333333333
scalar Network1000.node200 	qrecord_time 	60311.444129175
scalar Network1000.node200 	discovery_resolution_rate 	100
scalar Network1000.node190 	rate_of_requesters 	1
scalar Network1000.node190 	number_of_resources 	55000
scalar Network1000.node190 	time_period 	10
scalar Network1000.node190 	number_of_messages 	292
scalar Network1000.node190 	discovery_latency 	6204
scalar Network1000.node190 	number_of_desired_resources 	20
scalar Network1000.node190 	query_homogenity_rate 	33.333333333333
scalar Network1000.node190 	qrecord_time 	62390.777862709
scalar Network1000.node190 	discovery_resolution_rate 	83.333333333333
scalar Network1000.node600 	rate_of_requesters 	1
scalar Network1000.node600 	number_of_resources 	55000
scalar Network1000.node600 	time_period 	10
scalar Network1000.node600 	number_of_messages 	21
scalar Network1000.node600 	discovery_latency 	6396
scalar Network1000.node600 	number_of_desired_resources 	20
scalar Network1000.node600 	query_homogenity_rate 	33.333333333333
scalar Network1000.node600 	qrecord_time 	62706.206182043
scalar Network1000.node600 	discovery_resolution_rate 	66.666666666667
scalar Network1000.node460 	rate_of_requesters 	1
scalar Network1000.node460 	number_of_resources 	55000
scalar Network1000.node460 	time_period 	10
scalar Network1000.node460 	number_of_messages 	19
scalar Network1000.node460 	discovery_latency 	132
scalar Network1000.node460 	number_of_desired_resources 	20
scalar Network1000.node460 	query_homogenity_rate 	33.333333333333
scalar Network1000.node460 	qrecord_time 	63590.054629036
scalar Network1000.node460 	discovery_resolution_rate 	100
scalar Network1000.node170 	rate_of_requesters 	1
scalar Network1000.node170 	number_of_resources 	55000
scalar Network1000.node170 	time_period 	10
scalar Network1000.node170 	number_of_messages 	19
scalar Network1000.node170 	discovery_latency 	143.99999999999
scalar Network1000.node170 	number_of_desired_resources 	20
scalar Network1000.node170 	query_homogenity_rate 	33.333333333333
scalar Network1000.node170 	qrecord_time 	65228.375522789
scalar Network1000.node170 	discovery_resolution_rate 	100
scalar Network1000.node550 	rate_of_requesters 	1
scalar Network1000.node550 	number_of_resources 	55000
scalar Network1000.node550 	time_period 	10
scalar Network1000.node550 	number_of_messages 	23
scalar Network1000.node550 	discovery_latency 	191.99999999999
scalar Network1000.node550 	number_of_desired_resources 	20
scalar Network1000.node550 	query_homogenity_rate 	33.333333333333
scalar Network1000.node550 	qrecord_time 	67274.197908878
scalar Network1000.node550 	discovery_resolution_rate 	100
scalar Network1000.node860 	rate_of_requesters 	1
scalar Network1000.node860 	number_of_resources 	55000
scalar Network1000.node860 	time_period 	10
scalar Network1000.node860 	number_of_messages 	21
scalar Network1000.node860 	discovery_latency 	191.99999999999
scalar Network1000.node860 	number_of_desired_resources 	20
scalar Network1000.node860 	query_homogenity_rate 	33.333333333333
scalar Network1000.node860 	qrecord_time 	77018.1732074
scalar Network1000.node860 	discovery_resolution_rate 	100
scalar Network1000.node710 	rate_of_requesters 	1
scalar Network1000.node710 	number_of_resources 	55000
scalar Network1000.node710 	time_period 	10
scalar Network1000.node710 	number_of_messages 	23
scalar Network1000.node710 	discovery_latency 	204.00000000001
scalar Network1000.node710 	number_of_desired_resources 	20
scalar Network1000.node710 	query_homogenity_rate 	33.333333333333
scalar Network1000.node710 	qrecord_time 	80247.551808135
scalar Network1000.node710 	discovery_resolution_rate 	100
