version 2
run net300-1-20150623-18:20:12-8372
attr as 1
attr configname net300
attr datetime 20150623-18:20:12
attr dnor 20
attr experiment net300
attr inifile omnetpp.ini
attr iterationvars "$rhdrq=3, $dnor=20, $as=1"
attr iterationvars2 "$rhdrq=3, $dnor=20, $as=1, $repetition=1"
attr measurement "$rhdrq=3, $dnor=20, $as=1"
attr network Network300
attr processid 8372
attr repetition 1
attr replication #1
attr resultdir results
attr rhdrq 3
attr runnumber 1
attr seedset 1

scalar . 	as 	1
scalar . 	dnor 	20
scalar . 	rhdrq 	3
scalar Network300.node20 	rate_of_requesters 	1
scalar Network300.node20 	number_of_resources 	16500
scalar Network300.node20 	time_period 	1
scalar Network300.node20 	number_of_messages 	17
scalar Network300.node20 	discovery_latency 	108
scalar Network300.node20 	number_of_desired_resources 	20
scalar Network300.node20 	query_homogenity_rate 	33.333333333333
scalar Network300.node20 	qrecord_time 	4840
scalar Network300.node20 	discovery_resolution_rate 	100
scalar Network300.node30 	rate_of_requesters 	1
scalar Network300.node30 	number_of_resources 	16500
scalar Network300.node30 	time_period 	1
scalar Network300.node30 	number_of_messages 	53
scalar Network300.node30 	discovery_latency 	828
scalar Network300.node30 	number_of_desired_resources 	20
scalar Network300.node30 	query_homogenity_rate 	33.333333333333
scalar Network300.node30 	qrecord_time 	5638
scalar Network300.node30 	discovery_resolution_rate 	100
scalar Network300.node90 	rate_of_requesters 	1
scalar Network300.node90 	number_of_resources 	16500
scalar Network300.node90 	time_period 	1
scalar Network300.node90 	number_of_messages 	47
scalar Network300.node90 	discovery_latency 	1104
scalar Network300.node90 	number_of_desired_resources 	20
scalar Network300.node90 	query_homogenity_rate 	33.333333333333
scalar Network300.node90 	qrecord_time 	5854
scalar Network300.node90 	discovery_resolution_rate 	66.666666666667
scalar Network300.node210 	rate_of_requesters 	1
scalar Network300.node210 	number_of_resources 	16500
scalar Network300.node210 	time_period 	1
scalar Network300.node210 	number_of_messages 	12
scalar Network300.node210 	discovery_latency 	1176
scalar Network300.node210 	number_of_desired_resources 	20
scalar Network300.node210 	query_homogenity_rate 	33.333333333333
scalar Network300.node210 	qrecord_time 	5860
scalar Network300.node210 	discovery_resolution_rate 	66.666666666667
scalar Network300.node200 	rate_of_requesters 	1
scalar Network300.node200 	number_of_resources 	16500
scalar Network300.node200 	time_period 	1
scalar Network300.node200 	number_of_messages 	11
scalar Network300.node200 	discovery_latency 	1236
scalar Network300.node200 	number_of_desired_resources 	20
scalar Network300.node200 	query_homogenity_rate 	33.333333333333
scalar Network300.node200 	qrecord_time 	5926
scalar Network300.node200 	discovery_resolution_rate 	66.666666666667
scalar Network300.node0 	rate_of_requesters 	1
scalar Network300.node0 	number_of_resources 	16500
scalar Network300.node0 	time_period 	1
scalar Network300.node0 	number_of_messages 	9
scalar Network300.node0 	discovery_latency 	1152
scalar Network300.node0 	number_of_desired_resources 	20
scalar Network300.node0 	query_homogenity_rate 	33.333333333333
scalar Network300.node0 	qrecord_time 	5926
scalar Network300.node0 	discovery_resolution_rate 	33.333333333333
scalar Network300.node10 	rate_of_requesters 	1
scalar Network300.node10 	number_of_resources 	16500
scalar Network300.node10 	time_period 	1
scalar Network300.node10 	number_of_messages 	6
scalar Network300.node10 	discovery_latency 	1224
scalar Network300.node10 	number_of_desired_resources 	20
scalar Network300.node10 	query_homogenity_rate 	33.333333333333
scalar Network300.node10 	qrecord_time 	5938
scalar Network300.node10 	discovery_resolution_rate 	33.333333333333
scalar Network300.node260 	rate_of_requesters 	1
scalar Network300.node260 	number_of_resources 	16500
scalar Network300.node260 	time_period 	1
scalar Network300.node260 	number_of_messages 	6
scalar Network300.node260 	discovery_latency 	1188
scalar Network300.node260 	number_of_desired_resources 	20
scalar Network300.node260 	query_homogenity_rate 	33.333333333333
scalar Network300.node260 	qrecord_time 	5944
scalar Network300.node260 	discovery_resolution_rate 	33.333333333333
scalar Network300.node250 	rate_of_requesters 	1
scalar Network300.node250 	number_of_resources 	16500
scalar Network300.node250 	time_period 	1
scalar Network300.node250 	number_of_messages 	47
scalar Network300.node250 	discovery_latency 	1260
scalar Network300.node250 	number_of_desired_resources 	20
scalar Network300.node250 	query_homogenity_rate 	33.333333333333
scalar Network300.node250 	qrecord_time 	5944
scalar Network300.node250 	discovery_resolution_rate 	66.666666666667
scalar Network300.node150 	rate_of_requesters 	1
scalar Network300.node150 	number_of_resources 	16500
scalar Network300.node150 	time_period 	1
scalar Network300.node150 	number_of_messages 	8
scalar Network300.node150 	discovery_latency 	1200
scalar Network300.node150 	number_of_desired_resources 	20
scalar Network300.node150 	query_homogenity_rate 	33.333333333333
scalar Network300.node150 	qrecord_time 	5956
scalar Network300.node150 	discovery_resolution_rate 	33.333333333333
scalar Network300.node240 	rate_of_requesters 	1
scalar Network300.node240 	number_of_resources 	16500
scalar Network300.node240 	time_period 	1
scalar Network300.node240 	number_of_messages 	19
scalar Network300.node240 	discovery_latency 	1272
scalar Network300.node240 	number_of_desired_resources 	20
scalar Network300.node240 	query_homogenity_rate 	33.333333333333
scalar Network300.node240 	qrecord_time 	5962
scalar Network300.node240 	discovery_resolution_rate 	66.666666666667
scalar Network300.node230 	rate_of_requesters 	1
scalar Network300.node230 	number_of_resources 	16500
scalar Network300.node230 	time_period 	1
scalar Network300.node230 	number_of_messages 	12
scalar Network300.node230 	discovery_latency 	1236
scalar Network300.node230 	number_of_desired_resources 	20
scalar Network300.node230 	query_homogenity_rate 	33.333333333333
scalar Network300.node230 	qrecord_time 	5968
scalar Network300.node230 	discovery_resolution_rate 	66.666666666667
scalar Network300.node180 	rate_of_requesters 	1
scalar Network300.node180 	number_of_resources 	16500
scalar Network300.node180 	time_period 	1
scalar Network300.node180 	number_of_messages 	12
scalar Network300.node180 	discovery_latency 	1236
scalar Network300.node180 	number_of_desired_resources 	20
scalar Network300.node180 	query_homogenity_rate 	33.333333333333
scalar Network300.node180 	qrecord_time 	5974
scalar Network300.node180 	discovery_resolution_rate 	66.666666666667
scalar Network300.node190 	rate_of_requesters 	1
scalar Network300.node190 	number_of_resources 	16500
scalar Network300.node190 	time_period 	1
scalar Network300.node190 	number_of_messages 	49
scalar Network300.node190 	discovery_latency 	1212
scalar Network300.node190 	number_of_desired_resources 	20
scalar Network300.node190 	query_homogenity_rate 	33.333333333333
scalar Network300.node190 	qrecord_time 	5980
scalar Network300.node190 	discovery_resolution_rate 	66.666666666667
scalar Network300.node290 	rate_of_requesters 	1
scalar Network300.node290 	number_of_resources 	16500
scalar Network300.node290 	time_period 	1
scalar Network300.node290 	number_of_messages 	12
scalar Network300.node290 	discovery_latency 	1248
scalar Network300.node290 	number_of_desired_resources 	20
scalar Network300.node290 	query_homogenity_rate 	33.333333333333
scalar Network300.node290 	qrecord_time 	5980
scalar Network300.node290 	discovery_resolution_rate 	33.333333333333
scalar Network300.node130 	rate_of_requesters 	1
scalar Network300.node130 	number_of_resources 	16500
scalar Network300.node130 	time_period 	1
scalar Network300.node130 	number_of_messages 	9
scalar Network300.node130 	discovery_latency 	1296
scalar Network300.node130 	number_of_desired_resources 	20
scalar Network300.node130 	query_homogenity_rate 	33.333333333333
scalar Network300.node130 	qrecord_time 	5992
scalar Network300.node130 	discovery_resolution_rate 	66.666666666667
scalar Network300.node40 	rate_of_requesters 	1
scalar Network300.node40 	number_of_resources 	16500
scalar Network300.node40 	time_period 	1
scalar Network300.node40 	number_of_messages 	6
scalar Network300.node40 	discovery_latency 	1308
scalar Network300.node40 	number_of_desired_resources 	20
scalar Network300.node40 	query_homogenity_rate 	33.333333333333
scalar Network300.node40 	qrecord_time 	5998
scalar Network300.node40 	discovery_resolution_rate 	33.333333333333
scalar Network300.node280 	rate_of_requesters 	1
scalar Network300.node280 	number_of_resources 	16500
scalar Network300.node280 	time_period 	1
scalar Network300.node280 	number_of_messages 	6
scalar Network300.node280 	discovery_latency 	1200
scalar Network300.node280 	number_of_desired_resources 	20
scalar Network300.node280 	query_homogenity_rate 	33.333333333333
scalar Network300.node280 	qrecord_time 	5998
scalar Network300.node280 	discovery_resolution_rate 	33.333333333333
scalar Network300.node140 	rate_of_requesters 	1
scalar Network300.node140 	number_of_resources 	16500
scalar Network300.node140 	time_period 	1
scalar Network300.node140 	number_of_messages 	12
scalar Network300.node140 	discovery_latency 	1236
scalar Network300.node140 	number_of_desired_resources 	20
scalar Network300.node140 	query_homogenity_rate 	33.333333333333
scalar Network300.node140 	qrecord_time 	6004
scalar Network300.node140 	discovery_resolution_rate 	33.333333333333
scalar Network300.node60 	rate_of_requesters 	1
scalar Network300.node60 	number_of_resources 	16500
scalar Network300.node60 	time_period 	1
scalar Network300.node60 	number_of_messages 	4
scalar Network300.node60 	discovery_latency 	1236
scalar Network300.node60 	number_of_desired_resources 	20
scalar Network300.node60 	query_homogenity_rate 	33.333333333333
scalar Network300.node60 	qrecord_time 	6004
scalar Network300.node60 	discovery_resolution_rate 	33.333333333333
scalar Network300.node50 	rate_of_requesters 	1
scalar Network300.node50 	number_of_resources 	16500
scalar Network300.node50 	time_period 	1
scalar Network300.node50 	number_of_messages 	7
scalar Network300.node50 	discovery_latency 	1272
scalar Network300.node50 	number_of_desired_resources 	20
scalar Network300.node50 	query_homogenity_rate 	33.333333333333
scalar Network300.node50 	qrecord_time 	6022
scalar Network300.node50 	discovery_resolution_rate 	33.333333333333
scalar Network300.node100 	rate_of_requesters 	1
scalar Network300.node100 	number_of_resources 	16500
scalar Network300.node100 	time_period 	1
scalar Network300.node100 	number_of_messages 	7
scalar Network300.node100 	discovery_latency 	1236
scalar Network300.node100 	number_of_desired_resources 	20
scalar Network300.node100 	query_homogenity_rate 	33.333333333333
scalar Network300.node100 	qrecord_time 	6028
scalar Network300.node100 	discovery_resolution_rate 	33.333333333333
scalar Network300.node80 	rate_of_requesters 	1
scalar Network300.node80 	number_of_resources 	16500
scalar Network300.node80 	time_period 	1
scalar Network300.node80 	number_of_messages 	15
scalar Network300.node80 	discovery_latency 	1284
scalar Network300.node80 	number_of_desired_resources 	20
scalar Network300.node80 	query_homogenity_rate 	33.333333333333
scalar Network300.node80 	qrecord_time 	6034
scalar Network300.node80 	discovery_resolution_rate 	33.333333333333
scalar Network300.node160 	rate_of_requesters 	1
scalar Network300.node160 	number_of_resources 	16500
scalar Network300.node160 	time_period 	1
scalar Network300.node160 	number_of_messages 	4
scalar Network300.node160 	discovery_latency 	1224
scalar Network300.node160 	number_of_desired_resources 	20
scalar Network300.node160 	query_homogenity_rate 	33.333333333333
scalar Network300.node160 	qrecord_time 	6034
scalar Network300.node160 	discovery_resolution_rate 	33.333333333333
scalar Network300.node270 	rate_of_requesters 	1
scalar Network300.node270 	number_of_resources 	16500
scalar Network300.node270 	time_period 	1
scalar Network300.node270 	number_of_messages 	10
scalar Network300.node270 	discovery_latency 	1284
scalar Network300.node270 	number_of_desired_resources 	20
scalar Network300.node270 	query_homogenity_rate 	33.333333333333
scalar Network300.node270 	qrecord_time 	6034
scalar Network300.node270 	discovery_resolution_rate 	33.333333333333
scalar Network300.node170 	rate_of_requesters 	1
scalar Network300.node170 	number_of_resources 	16500
scalar Network300.node170 	time_period 	1
scalar Network300.node170 	number_of_messages 	5
scalar Network300.node170 	discovery_latency 	1272
scalar Network300.node170 	number_of_desired_resources 	20
scalar Network300.node170 	query_homogenity_rate 	33.333333333333
scalar Network300.node170 	qrecord_time 	6052
scalar Network300.node170 	discovery_resolution_rate 	33.333333333333
scalar Network300.node110 	rate_of_requesters 	1
scalar Network300.node110 	number_of_resources 	16500
scalar Network300.node110 	time_period 	1
scalar Network300.node110 	number_of_messages 	67
scalar Network300.node110 	discovery_latency 	1260
scalar Network300.node110 	number_of_desired_resources 	20
scalar Network300.node110 	query_homogenity_rate 	33.333333333333
scalar Network300.node110 	qrecord_time 	6052
scalar Network300.node110 	discovery_resolution_rate 	50
scalar Network300.node120 	rate_of_requesters 	1
scalar Network300.node120 	number_of_resources 	16500
scalar Network300.node120 	time_period 	1
scalar Network300.node120 	number_of_messages 	9
scalar Network300.node120 	discovery_latency 	1308
scalar Network300.node120 	number_of_desired_resources 	20
scalar Network300.node120 	query_homogenity_rate 	33.333333333333
scalar Network300.node120 	qrecord_time 	6082
scalar Network300.node120 	discovery_resolution_rate 	33.333333333333
scalar Network300.node70 	rate_of_requesters 	1
scalar Network300.node70 	number_of_resources 	16500
scalar Network300.node70 	time_period 	1
scalar Network300.node70 	number_of_messages 	6
scalar Network300.node70 	discovery_latency 	1332
scalar Network300.node70 	number_of_desired_resources 	20
scalar Network300.node70 	query_homogenity_rate 	33.333333333333
scalar Network300.node70 	qrecord_time 	6088
scalar Network300.node70 	discovery_resolution_rate 	33.333333333333
scalar Network300.node220 	rate_of_requesters 	1
scalar Network300.node220 	number_of_resources 	16500
scalar Network300.node220 	time_period 	1
scalar Network300.node220 	number_of_messages 	6
scalar Network300.node220 	discovery_latency 	1272
scalar Network300.node220 	number_of_desired_resources 	20
scalar Network300.node220 	query_homogenity_rate 	33.333333333333
scalar Network300.node220 	qrecord_time 	6088
scalar Network300.node220 	discovery_resolution_rate 	33.333333333333
scalar Network300.node160 	rate_of_requesters 	1
scalar Network300.node160 	number_of_resources 	16500
scalar Network300.node160 	time_period 	2
scalar Network300.node160 	number_of_messages 	37
scalar Network300.node160 	discovery_latency 	1200
scalar Network300.node160 	number_of_desired_resources 	20
scalar Network300.node160 	query_homogenity_rate 	33.333333333333
scalar Network300.node160 	qrecord_time 	6124.376128123
scalar Network300.node160 	discovery_resolution_rate 	66.666666666667
scalar Network300.node0 	rate_of_requesters 	1
scalar Network300.node0 	number_of_resources 	16500
scalar Network300.node0 	time_period 	2
scalar Network300.node0 	number_of_messages 	10
scalar Network300.node0 	discovery_latency 	1284
scalar Network300.node0 	number_of_desired_resources 	20
scalar Network300.node0 	query_homogenity_rate 	33.333333333333
scalar Network300.node0 	qrecord_time 	6268.731647036
scalar Network300.node0 	discovery_resolution_rate 	33.333333333333
scalar Network300.node210 	rate_of_requesters 	1
scalar Network300.node210 	number_of_resources 	16500
scalar Network300.node210 	time_period 	2
scalar Network300.node210 	number_of_messages 	8
scalar Network300.node210 	discovery_latency 	1284
scalar Network300.node210 	number_of_desired_resources 	20
scalar Network300.node210 	query_homogenity_rate 	33.333333333333
scalar Network300.node210 	qrecord_time 	6278.742753286
scalar Network300.node210 	discovery_resolution_rate 	33.333333333333
scalar Network300.node170 	rate_of_requesters 	1
scalar Network300.node170 	number_of_resources 	16500
scalar Network300.node170 	time_period 	2
scalar Network300.node170 	number_of_messages 	13
scalar Network300.node170 	discovery_latency 	1284
scalar Network300.node170 	number_of_desired_resources 	20
scalar Network300.node170 	query_homogenity_rate 	33.333333333333
scalar Network300.node170 	qrecord_time 	6578.717479555
scalar Network300.node170 	discovery_resolution_rate 	33.333333333333
scalar Network300.node50 	rate_of_requesters 	1
scalar Network300.node50 	number_of_resources 	16500
scalar Network300.node50 	time_period 	2
scalar Network300.node50 	number_of_messages 	7
scalar Network300.node50 	discovery_latency 	1212
scalar Network300.node50 	number_of_desired_resources 	20
scalar Network300.node50 	query_homogenity_rate 	33.333333333333
scalar Network300.node50 	qrecord_time 	6610.998285858
scalar Network300.node50 	discovery_resolution_rate 	33.333333333333
scalar Network300.node190 	rate_of_requesters 	1
scalar Network300.node190 	number_of_resources 	16500
scalar Network300.node190 	time_period 	2
scalar Network300.node190 	number_of_messages 	6
scalar Network300.node190 	discovery_latency 	1248
scalar Network300.node190 	number_of_desired_resources 	20
scalar Network300.node190 	query_homogenity_rate 	33.333333333333
scalar Network300.node190 	qrecord_time 	6915.845621993
scalar Network300.node190 	discovery_resolution_rate 	33.333333333333
scalar Network300.node50 	rate_of_requesters 	1
scalar Network300.node50 	number_of_resources 	16500
scalar Network300.node50 	time_period 	3
scalar Network300.node50 	number_of_messages 	8
scalar Network300.node50 	discovery_latency 	1236
scalar Network300.node50 	number_of_desired_resources 	20
scalar Network300.node50 	query_homogenity_rate 	33.333333333333
scalar Network300.node50 	qrecord_time 	6944.402515458
scalar Network300.node50 	discovery_resolution_rate 	33.333333333333
scalar Network300.node250 	rate_of_requesters 	1
scalar Network300.node250 	number_of_resources 	16500
scalar Network300.node250 	time_period 	2
scalar Network300.node250 	number_of_messages 	12
scalar Network300.node250 	discovery_latency 	1284
scalar Network300.node250 	number_of_desired_resources 	20
scalar Network300.node250 	query_homogenity_rate 	33.333333333333
scalar Network300.node250 	qrecord_time 	7044.07783621
scalar Network300.node250 	discovery_resolution_rate 	33.333333333333
scalar Network300.node230 	rate_of_requesters 	1
scalar Network300.node230 	number_of_resources 	16500
scalar Network300.node230 	time_period 	2
scalar Network300.node230 	number_of_messages 	8
scalar Network300.node230 	discovery_latency 	1260
scalar Network300.node230 	number_of_desired_resources 	20
scalar Network300.node230 	query_homogenity_rate 	33.333333333333
scalar Network300.node230 	qrecord_time 	7077.262958505
scalar Network300.node230 	discovery_resolution_rate 	33.333333333333
scalar Network300.node20 	rate_of_requesters 	1
scalar Network300.node20 	number_of_resources 	16500
scalar Network300.node20 	time_period 	2
scalar Network300.node20 	number_of_messages 	9
scalar Network300.node20 	discovery_latency 	1260
scalar Network300.node20 	number_of_desired_resources 	20
scalar Network300.node20 	query_homogenity_rate 	33.333333333333
scalar Network300.node20 	qrecord_time 	7212.991393614
scalar Network300.node20 	discovery_resolution_rate 	33.333333333333
scalar Network300.node20 	rate_of_requesters 	1
scalar Network300.node20 	number_of_resources 	16500
scalar Network300.node20 	time_period 	3
scalar Network300.node20 	number_of_messages 	9
scalar Network300.node20 	discovery_latency 	1212
scalar Network300.node20 	number_of_desired_resources 	20
scalar Network300.node20 	query_homogenity_rate 	33.333333333333
scalar Network300.node20 	qrecord_time 	7255.489082588
scalar Network300.node20 	discovery_resolution_rate 	33.333333333333
scalar Network300.node250 	rate_of_requesters 	1
scalar Network300.node250 	number_of_resources 	16500
scalar Network300.node250 	time_period 	3
scalar Network300.node250 	number_of_messages 	12
scalar Network300.node250 	discovery_latency 	1236
scalar Network300.node250 	number_of_desired_resources 	20
scalar Network300.node250 	query_homogenity_rate 	33.333333333333
scalar Network300.node250 	qrecord_time 	7466.719531362
scalar Network300.node250 	discovery_resolution_rate 	33.333333333333
scalar Network300.node40 	rate_of_requesters 	1
scalar Network300.node40 	number_of_resources 	16500
scalar Network300.node40 	time_period 	2
scalar Network300.node40 	number_of_messages 	6
scalar Network300.node40 	discovery_latency 	1260
scalar Network300.node40 	number_of_desired_resources 	20
scalar Network300.node40 	query_homogenity_rate 	33.333333333333
scalar Network300.node40 	qrecord_time 	7845.031611102
scalar Network300.node40 	discovery_resolution_rate 	33.333333333333
scalar Network300.node90 	rate_of_requesters 	1
scalar Network300.node90 	number_of_resources 	16500
scalar Network300.node90 	time_period 	2
scalar Network300.node90 	number_of_messages 	4
scalar Network300.node90 	discovery_latency 	1272
scalar Network300.node90 	number_of_desired_resources 	20
scalar Network300.node90 	query_homogenity_rate 	33.333333333333
scalar Network300.node90 	qrecord_time 	7871.961317244
scalar Network300.node90 	discovery_resolution_rate 	33.333333333333
scalar Network300.node110 	rate_of_requesters 	1
scalar Network300.node110 	number_of_resources 	16500
scalar Network300.node110 	time_period 	2
scalar Network300.node110 	number_of_messages 	14
scalar Network300.node110 	discovery_latency 	1272
scalar Network300.node110 	number_of_desired_resources 	20
scalar Network300.node110 	query_homogenity_rate 	33.333333333333
scalar Network300.node110 	qrecord_time 	8092.743111336
scalar Network300.node110 	discovery_resolution_rate 	33.333333333333
scalar Network300.node270 	rate_of_requesters 	1
scalar Network300.node270 	number_of_resources 	16500
scalar Network300.node270 	time_period 	2
scalar Network300.node270 	number_of_messages 	10
scalar Network300.node270 	discovery_latency 	1272
scalar Network300.node270 	number_of_desired_resources 	20
scalar Network300.node270 	query_homogenity_rate 	33.333333333333
scalar Network300.node270 	qrecord_time 	8100.501744252
scalar Network300.node270 	discovery_resolution_rate 	33.333333333333
scalar Network300.node250 	rate_of_requesters 	1
scalar Network300.node250 	number_of_resources 	16500
scalar Network300.node250 	time_period 	4
scalar Network300.node250 	number_of_messages 	13
scalar Network300.node250 	discovery_latency 	1284
scalar Network300.node250 	number_of_desired_resources 	20
scalar Network300.node250 	query_homogenity_rate 	33.333333333333
scalar Network300.node250 	qrecord_time 	8153.632599911
scalar Network300.node250 	discovery_resolution_rate 	33.333333333333
scalar Network300.node110 	rate_of_requesters 	1
scalar Network300.node110 	number_of_resources 	16500
scalar Network300.node110 	time_period 	3
scalar Network300.node110 	number_of_messages 	8
scalar Network300.node110 	discovery_latency 	1284
scalar Network300.node110 	number_of_desired_resources 	20
scalar Network300.node110 	query_homogenity_rate 	33.333333333333
scalar Network300.node110 	qrecord_time 	8312.885250223
scalar Network300.node110 	discovery_resolution_rate 	33.333333333333
scalar Network300.node260 	rate_of_requesters 	1
scalar Network300.node260 	number_of_resources 	16500
scalar Network300.node260 	time_period 	2
scalar Network300.node260 	number_of_messages 	23
scalar Network300.node260 	discovery_latency 	126
scalar Network300.node260 	number_of_desired_resources 	20
scalar Network300.node260 	query_homogenity_rate 	33.333333333333
scalar Network300.node260 	qrecord_time 	8350.172965481
scalar Network300.node260 	discovery_resolution_rate 	100
scalar Network300.node100 	rate_of_requesters 	1
scalar Network300.node100 	number_of_resources 	16500
scalar Network300.node100 	time_period 	2
scalar Network300.node100 	number_of_messages 	6
scalar Network300.node100 	discovery_latency 	1272
scalar Network300.node100 	number_of_desired_resources 	20
scalar Network300.node100 	query_homogenity_rate 	33.333333333333
scalar Network300.node100 	qrecord_time 	8709.993451393
scalar Network300.node100 	discovery_resolution_rate 	33.333333333333
scalar Network300.node50 	rate_of_requesters 	1
scalar Network300.node50 	number_of_resources 	16500
scalar Network300.node50 	time_period 	4
scalar Network300.node50 	number_of_messages 	9
scalar Network300.node50 	discovery_latency 	1224
scalar Network300.node50 	number_of_desired_resources 	20
scalar Network300.node50 	query_homogenity_rate 	33.333333333333
scalar Network300.node50 	qrecord_time 	8784.142733715
scalar Network300.node50 	discovery_resolution_rate 	33.333333333333
scalar Network300.node120 	rate_of_requesters 	1
scalar Network300.node120 	number_of_resources 	16500
scalar Network300.node120 	time_period 	2
scalar Network300.node120 	number_of_messages 	11
scalar Network300.node120 	discovery_latency 	1224
scalar Network300.node120 	number_of_desired_resources 	20
scalar Network300.node120 	query_homogenity_rate 	33.333333333333
scalar Network300.node120 	qrecord_time 	8951.688616047
scalar Network300.node120 	discovery_resolution_rate 	33.333333333333
scalar Network300.node270 	rate_of_requesters 	1
scalar Network300.node270 	number_of_resources 	16500
scalar Network300.node270 	time_period 	3
scalar Network300.node270 	number_of_messages 	11
scalar Network300.node270 	discovery_latency 	1248
scalar Network300.node270 	number_of_desired_resources 	20
scalar Network300.node270 	query_homogenity_rate 	33.333333333333
scalar Network300.node270 	qrecord_time 	8952.619702316
scalar Network300.node270 	discovery_resolution_rate 	33.333333333333
scalar Network300.node40 	rate_of_requesters 	1
scalar Network300.node40 	number_of_resources 	16500
scalar Network300.node40 	time_period 	3
scalar Network300.node40 	number_of_messages 	6
scalar Network300.node40 	discovery_latency 	1248
scalar Network300.node40 	number_of_desired_resources 	20
scalar Network300.node40 	query_homogenity_rate 	33.333333333333
scalar Network300.node40 	qrecord_time 	8966.561609016
scalar Network300.node40 	discovery_resolution_rate 	33.333333333333
scalar Network300.node170 	rate_of_requesters 	1
scalar Network300.node170 	number_of_resources 	16500
scalar Network300.node170 	time_period 	3
scalar Network300.node170 	number_of_messages 	20
scalar Network300.node170 	discovery_latency 	180
scalar Network300.node170 	number_of_desired_resources 	20
scalar Network300.node170 	query_homogenity_rate 	33.333333333333
scalar Network300.node170 	qrecord_time 	9362.956978294
scalar Network300.node170 	discovery_resolution_rate 	100
scalar Network300.node20 	rate_of_requesters 	1
scalar Network300.node20 	number_of_resources 	16500
scalar Network300.node20 	time_period 	4
scalar Network300.node20 	number_of_messages 	7
scalar Network300.node20 	discovery_latency 	1212
scalar Network300.node20 	number_of_desired_resources 	20
scalar Network300.node20 	query_homogenity_rate 	33.333333333333
scalar Network300.node20 	qrecord_time 	9511.961629398
scalar Network300.node20 	discovery_resolution_rate 	33.333333333333
scalar Network300.node250 	rate_of_requesters 	1
scalar Network300.node250 	number_of_resources 	16500
scalar Network300.node250 	time_period 	5
scalar Network300.node250 	number_of_messages 	13
scalar Network300.node250 	discovery_latency 	1200
scalar Network300.node250 	number_of_desired_resources 	20
scalar Network300.node250 	query_homogenity_rate 	33.333333333333
scalar Network300.node250 	qrecord_time 	9590.657503727
scalar Network300.node250 	discovery_resolution_rate 	33.333333333333
scalar Network300.node180 	rate_of_requesters 	1
scalar Network300.node180 	number_of_resources 	16500
scalar Network300.node180 	time_period 	2
scalar Network300.node180 	number_of_messages 	9
scalar Network300.node180 	discovery_latency 	1212
scalar Network300.node180 	number_of_desired_resources 	20
scalar Network300.node180 	query_homogenity_rate 	33.333333333333
scalar Network300.node180 	qrecord_time 	9640.697499571
scalar Network300.node180 	discovery_resolution_rate 	33.333333333333
scalar Network300.node240 	rate_of_requesters 	1
scalar Network300.node240 	number_of_resources 	16500
scalar Network300.node240 	time_period 	2
scalar Network300.node240 	number_of_messages 	57
scalar Network300.node240 	discovery_latency 	912
scalar Network300.node240 	number_of_desired_resources 	20
scalar Network300.node240 	query_homogenity_rate 	33.333333333333
scalar Network300.node240 	qrecord_time 	10147.935440305
scalar Network300.node240 	discovery_resolution_rate 	100
scalar Network300.node290 	rate_of_requesters 	1
scalar Network300.node290 	number_of_resources 	16500
scalar Network300.node290 	time_period 	2
scalar Network300.node290 	number_of_messages 	21
scalar Network300.node290 	discovery_latency 	1296
scalar Network300.node290 	number_of_desired_resources 	20
scalar Network300.node290 	query_homogenity_rate 	33.333333333333
scalar Network300.node290 	qrecord_time 	10373.905538518
scalar Network300.node290 	discovery_resolution_rate 	66.666666666667
scalar Network300.node90 	rate_of_requesters 	1
scalar Network300.node90 	number_of_resources 	16500
scalar Network300.node90 	time_period 	3
scalar Network300.node90 	number_of_messages 	10
scalar Network300.node90 	discovery_latency 	1308
scalar Network300.node90 	number_of_desired_resources 	20
scalar Network300.node90 	query_homogenity_rate 	33.333333333333
scalar Network300.node90 	qrecord_time 	10393.929080914
scalar Network300.node90 	discovery_resolution_rate 	66.666666666667
scalar Network300.node170 	rate_of_requesters 	1
scalar Network300.node170 	number_of_resources 	16500
scalar Network300.node170 	time_period 	4
scalar Network300.node170 	number_of_messages 	61
scalar Network300.node170 	discovery_latency 	1284
scalar Network300.node170 	number_of_desired_resources 	20
scalar Network300.node170 	query_homogenity_rate 	33.333333333333
scalar Network300.node170 	qrecord_time 	10522.249709278
scalar Network300.node170 	discovery_resolution_rate 	50
scalar Network300.node290 	rate_of_requesters 	1
scalar Network300.node290 	number_of_resources 	16500
scalar Network300.node290 	time_period 	3
scalar Network300.node290 	number_of_messages 	27
scalar Network300.node290 	discovery_latency 	1236
scalar Network300.node290 	number_of_desired_resources 	20
scalar Network300.node290 	query_homogenity_rate 	33.333333333333
scalar Network300.node290 	qrecord_time 	10797.103232355
scalar Network300.node290 	discovery_resolution_rate 	66.666666666667
scalar Network300.node230 	rate_of_requesters 	1
scalar Network300.node230 	number_of_resources 	16500
scalar Network300.node230 	time_period 	3
scalar Network300.node230 	number_of_messages 	7
scalar Network300.node230 	discovery_latency 	1236
scalar Network300.node230 	number_of_desired_resources 	20
scalar Network300.node230 	query_homogenity_rate 	33.333333333333
scalar Network300.node230 	qrecord_time 	10846.166868383
scalar Network300.node230 	discovery_resolution_rate 	33.333333333333
scalar Network300.node210 	rate_of_requesters 	1
scalar Network300.node210 	number_of_resources 	16500
scalar Network300.node210 	time_period 	3
scalar Network300.node210 	number_of_messages 	8
scalar Network300.node210 	discovery_latency 	1296
scalar Network300.node210 	number_of_desired_resources 	20
scalar Network300.node210 	query_homogenity_rate 	33.333333333333
scalar Network300.node210 	qrecord_time 	11201.030670589
scalar Network300.node210 	discovery_resolution_rate 	33.333333333333
scalar Network300.node220 	rate_of_requesters 	1
scalar Network300.node220 	number_of_resources 	16500
scalar Network300.node220 	time_period 	2
scalar Network300.node220 	number_of_messages 	6
scalar Network300.node220 	discovery_latency 	1296
scalar Network300.node220 	number_of_desired_resources 	20
scalar Network300.node220 	query_homogenity_rate 	33.333333333333
scalar Network300.node220 	qrecord_time 	11318.905206708
scalar Network300.node220 	discovery_resolution_rate 	33.333333333333
scalar Network300.node80 	rate_of_requesters 	1
scalar Network300.node80 	number_of_resources 	16500
scalar Network300.node80 	time_period 	2
scalar Network300.node80 	number_of_messages 	20
scalar Network300.node80 	discovery_latency 	1224
scalar Network300.node80 	number_of_desired_resources 	20
scalar Network300.node80 	query_homogenity_rate 	33.333333333333
scalar Network300.node80 	qrecord_time 	11532.642371199
scalar Network300.node80 	discovery_resolution_rate 	66.666666666667
scalar Network300.node240 	rate_of_requesters 	1
scalar Network300.node240 	number_of_resources 	16500
scalar Network300.node240 	time_period 	3
scalar Network300.node240 	number_of_messages 	12
scalar Network300.node240 	discovery_latency 	1260
scalar Network300.node240 	number_of_desired_resources 	20
scalar Network300.node240 	query_homogenity_rate 	33.333333333333
scalar Network300.node240 	qrecord_time 	11936.15797684
scalar Network300.node240 	discovery_resolution_rate 	66.666666666667
scalar Network300.node90 	rate_of_requesters 	1
scalar Network300.node90 	number_of_resources 	16500
scalar Network300.node90 	time_period 	4
scalar Network300.node90 	number_of_messages 	4
scalar Network300.node90 	discovery_latency 	1260
scalar Network300.node90 	number_of_desired_resources 	20
scalar Network300.node90 	query_homogenity_rate 	33.333333333333
scalar Network300.node90 	qrecord_time 	11990.264788269
scalar Network300.node90 	discovery_resolution_rate 	33.333333333333
scalar Network300.node30 	rate_of_requesters 	1
scalar Network300.node30 	number_of_resources 	16500
scalar Network300.node30 	time_period 	2
scalar Network300.node30 	number_of_messages 	13
scalar Network300.node30 	discovery_latency 	1296
scalar Network300.node30 	number_of_desired_resources 	20
scalar Network300.node30 	query_homogenity_rate 	33.333333333333
scalar Network300.node30 	qrecord_time 	12056.093868142
scalar Network300.node30 	discovery_resolution_rate 	66.666666666667
scalar Network300.node190 	rate_of_requesters 	1
scalar Network300.node190 	number_of_resources 	16500
scalar Network300.node190 	time_period 	3
scalar Network300.node190 	number_of_messages 	13
scalar Network300.node190 	discovery_latency 	1284
scalar Network300.node190 	number_of_desired_resources 	20
scalar Network300.node190 	query_homogenity_rate 	33.333333333333
scalar Network300.node190 	qrecord_time 	12070.398546083
scalar Network300.node190 	discovery_resolution_rate 	66.666666666667
scalar Network300.node130 	rate_of_requesters 	1
scalar Network300.node130 	number_of_resources 	16500
scalar Network300.node130 	time_period 	2
scalar Network300.node130 	number_of_messages 	4
scalar Network300.node130 	discovery_latency 	1284
scalar Network300.node130 	number_of_desired_resources 	20
scalar Network300.node130 	query_homogenity_rate 	33.333333333333
scalar Network300.node130 	qrecord_time 	12112.871789041
scalar Network300.node130 	discovery_resolution_rate 	33.333333333333
scalar Network300.node90 	rate_of_requesters 	1
scalar Network300.node90 	number_of_resources 	16500
scalar Network300.node90 	time_period 	5
scalar Network300.node90 	number_of_messages 	4
scalar Network300.node90 	discovery_latency 	1236
scalar Network300.node90 	number_of_desired_resources 	20
scalar Network300.node90 	query_homogenity_rate 	33.333333333333
scalar Network300.node90 	qrecord_time 	12202.307590773
scalar Network300.node90 	discovery_resolution_rate 	33.333333333333
scalar Network300.node280 	rate_of_requesters 	1
scalar Network300.node280 	number_of_resources 	16500
scalar Network300.node280 	time_period 	2
scalar Network300.node280 	number_of_messages 	6
scalar Network300.node280 	discovery_latency 	1284
scalar Network300.node280 	number_of_desired_resources 	20
scalar Network300.node280 	query_homogenity_rate 	33.333333333333
scalar Network300.node280 	qrecord_time 	12236.265845345
scalar Network300.node280 	discovery_resolution_rate 	33.333333333333
scalar Network300.node60 	rate_of_requesters 	1
scalar Network300.node60 	number_of_resources 	16500
scalar Network300.node60 	time_period 	2
scalar Network300.node60 	number_of_messages 	4
scalar Network300.node60 	discovery_latency 	1188
scalar Network300.node60 	number_of_desired_resources 	20
scalar Network300.node60 	query_homogenity_rate 	33.333333333333
scalar Network300.node60 	qrecord_time 	12304.323338592
scalar Network300.node60 	discovery_resolution_rate 	33.333333333333
scalar Network300.node180 	rate_of_requesters 	1
scalar Network300.node180 	number_of_resources 	16500
scalar Network300.node180 	time_period 	3
scalar Network300.node180 	number_of_messages 	6
scalar Network300.node180 	discovery_latency 	1260
scalar Network300.node180 	number_of_desired_resources 	20
scalar Network300.node180 	query_homogenity_rate 	33.333333333333
scalar Network300.node180 	qrecord_time 	12331.712560429
scalar Network300.node180 	discovery_resolution_rate 	33.333333333333
scalar Network300.node30 	rate_of_requesters 	1
scalar Network300.node30 	number_of_resources 	16500
scalar Network300.node30 	time_period 	3
scalar Network300.node30 	number_of_messages 	8
scalar Network300.node30 	discovery_latency 	1320
scalar Network300.node30 	number_of_desired_resources 	20
scalar Network300.node30 	query_homogenity_rate 	33.333333333333
scalar Network300.node30 	qrecord_time 	12487.687680529
scalar Network300.node30 	discovery_resolution_rate 	33.333333333333
scalar Network300.node0 	rate_of_requesters 	1
scalar Network300.node0 	number_of_resources 	16500
scalar Network300.node0 	time_period 	3
scalar Network300.node0 	number_of_messages 	13
scalar Network300.node0 	discovery_latency 	1248
scalar Network300.node0 	number_of_desired_resources 	20
scalar Network300.node0 	query_homogenity_rate 	33.333333333333
scalar Network300.node0 	qrecord_time 	12674.318283207
scalar Network300.node0 	discovery_resolution_rate 	66.666666666667
scalar Network300.node280 	rate_of_requesters 	1
scalar Network300.node280 	number_of_resources 	16500
scalar Network300.node280 	time_period 	3
scalar Network300.node280 	number_of_messages 	32
scalar Network300.node280 	discovery_latency 	180
scalar Network300.node280 	number_of_desired_resources 	20
scalar Network300.node280 	query_homogenity_rate 	33.333333333333
scalar Network300.node280 	qrecord_time 	12865.610355172
scalar Network300.node280 	discovery_resolution_rate 	100
scalar Network300.node140 	rate_of_requesters 	1
scalar Network300.node140 	number_of_resources 	16500
scalar Network300.node140 	time_period 	2
scalar Network300.node140 	number_of_messages 	21
scalar Network300.node140 	discovery_latency 	1260
scalar Network300.node140 	number_of_desired_resources 	20
scalar Network300.node140 	query_homogenity_rate 	33.333333333333
scalar Network300.node140 	qrecord_time 	12885.945058343
scalar Network300.node140 	discovery_resolution_rate 	66.666666666667
scalar Network300.node150 	rate_of_requesters 	1
scalar Network300.node150 	number_of_resources 	16500
scalar Network300.node150 	time_period 	2
scalar Network300.node150 	number_of_messages 	8
scalar Network300.node150 	discovery_latency 	1236
scalar Network300.node150 	number_of_desired_resources 	20
scalar Network300.node150 	query_homogenity_rate 	33.333333333333
scalar Network300.node150 	qrecord_time 	13104.037935867
scalar Network300.node150 	discovery_resolution_rate 	33.333333333333
scalar Network300.node90 	rate_of_requesters 	1
scalar Network300.node90 	number_of_resources 	16500
scalar Network300.node90 	time_period 	6
scalar Network300.node90 	number_of_messages 	4
scalar Network300.node90 	discovery_latency 	1188
scalar Network300.node90 	number_of_desired_resources 	20
scalar Network300.node90 	query_homogenity_rate 	33.333333333333
scalar Network300.node90 	qrecord_time 	13621.858741727
scalar Network300.node90 	discovery_resolution_rate 	33.333333333333
scalar Network300.node220 	rate_of_requesters 	1
scalar Network300.node220 	number_of_resources 	16500
scalar Network300.node220 	time_period 	4
scalar Network300.node220 	number_of_messages 	29
scalar Network300.node220 	discovery_latency 	228
scalar Network300.node220 	number_of_desired_resources 	20
scalar Network300.node220 	query_homogenity_rate 	33.333333333333
scalar Network300.node220 	qrecord_time 	13891.519208034
scalar Network300.node220 	discovery_resolution_rate 	100
scalar Network300.node10 	rate_of_requesters 	1
scalar Network300.node10 	number_of_resources 	16500
scalar Network300.node10 	time_period 	2
scalar Network300.node10 	number_of_messages 	6
scalar Network300.node10 	discovery_latency 	1260
scalar Network300.node10 	number_of_desired_resources 	20
scalar Network300.node10 	query_homogenity_rate 	33.333333333333
scalar Network300.node10 	qrecord_time 	14088.601163137
scalar Network300.node10 	discovery_resolution_rate 	33.333333333333
scalar Network300.node110 	rate_of_requesters 	1
scalar Network300.node110 	number_of_resources 	16500
scalar Network300.node110 	time_period 	4
scalar Network300.node110 	number_of_messages 	8
scalar Network300.node110 	discovery_latency 	1236
scalar Network300.node110 	number_of_desired_resources 	20
scalar Network300.node110 	query_homogenity_rate 	33.333333333333
scalar Network300.node110 	qrecord_time 	14110.569017578
scalar Network300.node110 	discovery_resolution_rate 	33.333333333333
scalar Network300.node190 	rate_of_requesters 	1
scalar Network300.node190 	number_of_resources 	16500
scalar Network300.node190 	time_period 	4
scalar Network300.node190 	number_of_messages 	61
scalar Network300.node190 	discovery_latency 	1320
scalar Network300.node190 	number_of_desired_resources 	20
scalar Network300.node190 	query_homogenity_rate 	33.333333333333
scalar Network300.node190 	qrecord_time 	14165.445766848
scalar Network300.node190 	discovery_resolution_rate 	50
scalar Network300.node130 	rate_of_requesters 	1
scalar Network300.node130 	number_of_resources 	16500
scalar Network300.node130 	time_period 	3
scalar Network300.node130 	number_of_messages 	21
scalar Network300.node130 	discovery_latency 	276
scalar Network300.node130 	number_of_desired_resources 	20
scalar Network300.node130 	query_homogenity_rate 	33.333333333333
scalar Network300.node130 	qrecord_time 	14383.754088408
scalar Network300.node130 	discovery_resolution_rate 	100
scalar Network300.node220 	rate_of_requesters 	1
scalar Network300.node220 	number_of_resources 	16500
scalar Network300.node220 	time_period 	3
scalar Network300.node220 	number_of_messages 	6
scalar Network300.node220 	discovery_latency 	1236
scalar Network300.node220 	number_of_desired_resources 	20
scalar Network300.node220 	query_homogenity_rate 	33.333333333333
scalar Network300.node220 	qrecord_time 	14433.192898153
scalar Network300.node220 	discovery_resolution_rate 	33.333333333333
scalar Network300.node50 	rate_of_requesters 	1
scalar Network300.node50 	number_of_resources 	16500
scalar Network300.node50 	time_period 	5
scalar Network300.node50 	number_of_messages 	7
scalar Network300.node50 	discovery_latency 	1248
scalar Network300.node50 	number_of_desired_resources 	20
scalar Network300.node50 	query_homogenity_rate 	33.333333333333
scalar Network300.node50 	qrecord_time 	14618.613147963
scalar Network300.node50 	discovery_resolution_rate 	33.333333333333
scalar Network300.node90 	rate_of_requesters 	1
scalar Network300.node90 	number_of_resources 	16500
scalar Network300.node90 	time_period 	7
scalar Network300.node90 	number_of_messages 	17
scalar Network300.node90 	discovery_latency 	1260
scalar Network300.node90 	number_of_desired_resources 	20
scalar Network300.node90 	query_homogenity_rate 	33.333333333333
scalar Network300.node90 	qrecord_time 	14802.288172694
scalar Network300.node90 	discovery_resolution_rate 	66.666666666667
scalar Network300.node160 	rate_of_requesters 	1
scalar Network300.node160 	number_of_resources 	16500
scalar Network300.node160 	time_period 	3
scalar Network300.node160 	number_of_messages 	69
scalar Network300.node160 	discovery_latency 	1188
scalar Network300.node160 	number_of_desired_resources 	20
scalar Network300.node160 	query_homogenity_rate 	33.333333333333
scalar Network300.node160 	qrecord_time 	15438.959335404
scalar Network300.node160 	discovery_resolution_rate 	100
scalar Network300.node20 	rate_of_requesters 	1
scalar Network300.node20 	number_of_resources 	16500
scalar Network300.node20 	time_period 	5
scalar Network300.node20 	number_of_messages 	16
scalar Network300.node20 	discovery_latency 	1212
scalar Network300.node20 	number_of_desired_resources 	20
scalar Network300.node20 	query_homogenity_rate 	33.333333333333
scalar Network300.node20 	qrecord_time 	15567.760061024
scalar Network300.node20 	discovery_resolution_rate 	66.666666666667
scalar Network300.node170 	rate_of_requesters 	1
scalar Network300.node170 	number_of_resources 	16500
scalar Network300.node170 	time_period 	5
scalar Network300.node170 	number_of_messages 	5
scalar Network300.node170 	discovery_latency 	1260
scalar Network300.node170 	number_of_desired_resources 	20
scalar Network300.node170 	query_homogenity_rate 	33.333333333333
scalar Network300.node170 	qrecord_time 	15704.143617372
scalar Network300.node170 	discovery_resolution_rate 	33.333333333333
scalar Network300.node150 	rate_of_requesters 	1
scalar Network300.node150 	number_of_resources 	16500
scalar Network300.node150 	time_period 	3
scalar Network300.node150 	number_of_messages 	31
scalar Network300.node150 	discovery_latency 	192
scalar Network300.node150 	number_of_desired_resources 	20
scalar Network300.node150 	query_homogenity_rate 	33.333333333333
scalar Network300.node150 	qrecord_time 	16099.499230327
scalar Network300.node150 	discovery_resolution_rate 	100
scalar Network300.node220 	rate_of_requesters 	1
scalar Network300.node220 	number_of_resources 	16500
scalar Network300.node220 	time_period 	5
scalar Network300.node220 	number_of_messages 	17
scalar Network300.node220 	discovery_latency 	1248
scalar Network300.node220 	number_of_desired_resources 	20
scalar Network300.node220 	query_homogenity_rate 	33.333333333333
scalar Network300.node220 	qrecord_time 	16126.883430839
scalar Network300.node220 	discovery_resolution_rate 	66.666666666667
scalar Network300.node280 	rate_of_requesters 	1
scalar Network300.node280 	number_of_resources 	16500
scalar Network300.node280 	time_period 	4
scalar Network300.node280 	number_of_messages 	37
scalar Network300.node280 	discovery_latency 	348
scalar Network300.node280 	number_of_desired_resources 	20
scalar Network300.node280 	query_homogenity_rate 	33.333333333333
scalar Network300.node280 	qrecord_time 	16427.4615679
scalar Network300.node280 	discovery_resolution_rate 	100
scalar Network300.node110 	rate_of_requesters 	1
scalar Network300.node110 	number_of_resources 	16500
scalar Network300.node110 	time_period 	5
scalar Network300.node110 	number_of_messages 	19
scalar Network300.node110 	discovery_latency 	1200
scalar Network300.node110 	number_of_desired_resources 	20
scalar Network300.node110 	query_homogenity_rate 	33.333333333333
scalar Network300.node110 	qrecord_time 	16536.690998983
scalar Network300.node110 	discovery_resolution_rate 	66.666666666667
scalar Network300.node230 	rate_of_requesters 	1
scalar Network300.node230 	number_of_resources 	16500
scalar Network300.node230 	time_period 	4
scalar Network300.node230 	number_of_messages 	17
scalar Network300.node230 	discovery_latency 	1308
scalar Network300.node230 	number_of_desired_resources 	20
scalar Network300.node230 	query_homogenity_rate 	33.333333333333
scalar Network300.node230 	qrecord_time 	16762.858235427
scalar Network300.node230 	discovery_resolution_rate 	66.666666666667
scalar Network300.node220 	rate_of_requesters 	1
scalar Network300.node220 	number_of_resources 	16500
scalar Network300.node220 	time_period 	6
scalar Network300.node220 	number_of_messages 	6
scalar Network300.node220 	discovery_latency 	1260
scalar Network300.node220 	number_of_desired_resources 	20
scalar Network300.node220 	query_homogenity_rate 	33.333333333333
scalar Network300.node220 	qrecord_time 	16805.318686371
scalar Network300.node220 	discovery_resolution_rate 	33.333333333333
scalar Network300.node60 	rate_of_requesters 	1
scalar Network300.node60 	number_of_resources 	16500
scalar Network300.node60 	time_period 	3
scalar Network300.node60 	number_of_messages 	12
scalar Network300.node60 	discovery_latency 	1224
scalar Network300.node60 	number_of_desired_resources 	20
scalar Network300.node60 	query_homogenity_rate 	33.333333333333
scalar Network300.node60 	qrecord_time 	17209.564901845
scalar Network300.node60 	discovery_resolution_rate 	66.666666666667
scalar Network300.node40 	rate_of_requesters 	1
scalar Network300.node40 	number_of_resources 	16500
scalar Network300.node40 	time_period 	4
scalar Network300.node40 	number_of_messages 	6
scalar Network300.node40 	discovery_latency 	1260
scalar Network300.node40 	number_of_desired_resources 	20
scalar Network300.node40 	query_homogenity_rate 	33.333333333333
scalar Network300.node40 	qrecord_time 	17216.749558804
scalar Network300.node40 	discovery_resolution_rate 	33.333333333333
scalar Network300.node50 	rate_of_requesters 	1
scalar Network300.node50 	number_of_resources 	16500
scalar Network300.node50 	time_period 	6
scalar Network300.node50 	number_of_messages 	7
scalar Network300.node50 	discovery_latency 	1284
scalar Network300.node50 	number_of_desired_resources 	20
scalar Network300.node50 	query_homogenity_rate 	33.333333333333
scalar Network300.node50 	qrecord_time 	17304.411076858
scalar Network300.node50 	discovery_resolution_rate 	33.333333333333
scalar Network300.node30 	rate_of_requesters 	1
scalar Network300.node30 	number_of_resources 	16500
scalar Network300.node30 	time_period 	4
scalar Network300.node30 	number_of_messages 	8
scalar Network300.node30 	discovery_latency 	1320
scalar Network300.node30 	number_of_desired_resources 	20
scalar Network300.node30 	query_homogenity_rate 	33.333333333333
scalar Network300.node30 	qrecord_time 	17343.264703461
scalar Network300.node30 	discovery_resolution_rate 	33.333333333333
scalar Network300.node160 	rate_of_requesters 	1
scalar Network300.node160 	number_of_resources 	16500
scalar Network300.node160 	time_period 	4
scalar Network300.node160 	number_of_messages 	10
scalar Network300.node160 	discovery_latency 	1260
scalar Network300.node160 	number_of_desired_resources 	20
scalar Network300.node160 	query_homogenity_rate 	33.333333333333
scalar Network300.node160 	qrecord_time 	17456.345632803
scalar Network300.node160 	discovery_resolution_rate 	33.333333333333
scalar Network300.node270 	rate_of_requesters 	1
scalar Network300.node270 	number_of_resources 	16500
scalar Network300.node270 	time_period 	4
scalar Network300.node270 	number_of_messages 	10
scalar Network300.node270 	discovery_latency 	1236
scalar Network300.node270 	number_of_desired_resources 	20
scalar Network300.node270 	query_homogenity_rate 	33.333333333333
scalar Network300.node270 	qrecord_time 	17535.79380329
scalar Network300.node270 	discovery_resolution_rate 	33.333333333333
scalar Network300.node120 	rate_of_requesters 	1
scalar Network300.node120 	number_of_resources 	16500
scalar Network300.node120 	time_period 	3
scalar Network300.node120 	number_of_messages 	9
scalar Network300.node120 	discovery_latency 	1272
scalar Network300.node120 	number_of_desired_resources 	20
scalar Network300.node120 	query_homogenity_rate 	33.333333333333
scalar Network300.node120 	qrecord_time 	17733.949561131
scalar Network300.node120 	discovery_resolution_rate 	33.333333333333
scalar Network300.node100 	rate_of_requesters 	1
scalar Network300.node100 	number_of_resources 	16500
scalar Network300.node100 	time_period 	3
scalar Network300.node100 	number_of_messages 	6
scalar Network300.node100 	discovery_latency 	1236
scalar Network300.node100 	number_of_desired_resources 	20
scalar Network300.node100 	query_homogenity_rate 	33.333333333333
scalar Network300.node100 	qrecord_time 	17782.870834847
scalar Network300.node100 	discovery_resolution_rate 	33.333333333333
scalar Network300.node90 	rate_of_requesters 	1
scalar Network300.node90 	number_of_resources 	16500
scalar Network300.node90 	time_period 	9
scalar Network300.node90 	number_of_messages 	20
scalar Network300.node90 	discovery_latency 	156
scalar Network300.node90 	number_of_desired_resources 	20
scalar Network300.node90 	query_homogenity_rate 	33.333333333333
scalar Network300.node90 	qrecord_time 	17805.330866309
scalar Network300.node90 	discovery_resolution_rate 	100
scalar Network300.node180 	rate_of_requesters 	1
scalar Network300.node180 	number_of_resources 	16500
scalar Network300.node180 	time_period 	4
scalar Network300.node180 	number_of_messages 	6
scalar Network300.node180 	discovery_latency 	1248
scalar Network300.node180 	number_of_desired_resources 	20
scalar Network300.node180 	query_homogenity_rate 	33.333333333333
scalar Network300.node180 	qrecord_time 	17848.221241822
scalar Network300.node180 	discovery_resolution_rate 	33.333333333333
scalar Network300.node90 	rate_of_requesters 	1
scalar Network300.node90 	number_of_resources 	16500
scalar Network300.node90 	time_period 	8
scalar Network300.node90 	number_of_messages 	4
scalar Network300.node90 	discovery_latency 	1284
scalar Network300.node90 	number_of_desired_resources 	20
scalar Network300.node90 	query_homogenity_rate 	33.333333333333
scalar Network300.node90 	qrecord_time 	17859.622952461
scalar Network300.node90 	discovery_resolution_rate 	33.333333333333
scalar Network300.node170 	rate_of_requesters 	1
scalar Network300.node170 	number_of_resources 	16500
scalar Network300.node170 	time_period 	6
scalar Network300.node170 	number_of_messages 	6
scalar Network300.node170 	discovery_latency 	1284
scalar Network300.node170 	number_of_desired_resources 	20
scalar Network300.node170 	query_homogenity_rate 	33.333333333333
scalar Network300.node170 	qrecord_time 	18081.590805234
scalar Network300.node170 	discovery_resolution_rate 	33.333333333333
scalar Network300.node160 	rate_of_requesters 	1
scalar Network300.node160 	number_of_resources 	16500
scalar Network300.node160 	time_period 	5
scalar Network300.node160 	number_of_messages 	10
scalar Network300.node160 	discovery_latency 	1260
scalar Network300.node160 	number_of_desired_resources 	20
scalar Network300.node160 	query_homogenity_rate 	33.333333333333
scalar Network300.node160 	qrecord_time 	18369.125621656
scalar Network300.node160 	discovery_resolution_rate 	33.333333333333
scalar Network300.node110 	rate_of_requesters 	1
scalar Network300.node110 	number_of_resources 	16500
scalar Network300.node110 	time_period 	6
scalar Network300.node110 	number_of_messages 	23
scalar Network300.node110 	discovery_latency 	1236
scalar Network300.node110 	number_of_desired_resources 	20
scalar Network300.node110 	query_homogenity_rate 	33.333333333333
scalar Network300.node110 	qrecord_time 	18993.843888811
scalar Network300.node110 	discovery_resolution_rate 	66.666666666667
scalar Network300.node60 	rate_of_requesters 	1
scalar Network300.node60 	number_of_resources 	16500
scalar Network300.node60 	time_period 	4
scalar Network300.node60 	number_of_messages 	4
scalar Network300.node60 	discovery_latency 	1224
scalar Network300.node60 	number_of_desired_resources 	20
scalar Network300.node60 	query_homogenity_rate 	33.333333333333
scalar Network300.node60 	qrecord_time 	19337.859628644
scalar Network300.node60 	discovery_resolution_rate 	33.333333333333
scalar Network300.node170 	rate_of_requesters 	1
scalar Network300.node170 	number_of_resources 	16500
scalar Network300.node170 	time_period 	7
scalar Network300.node170 	number_of_messages 	6
scalar Network300.node170 	discovery_latency 	1296
scalar Network300.node170 	number_of_desired_resources 	20
scalar Network300.node170 	query_homogenity_rate 	33.333333333333
scalar Network300.node170 	qrecord_time 	19364.547943018
scalar Network300.node170 	discovery_resolution_rate 	33.333333333333
scalar Network300.node90 	rate_of_requesters 	1
scalar Network300.node90 	number_of_resources 	16500
scalar Network300.node90 	time_period 	10
scalar Network300.node90 	number_of_messages 	4
scalar Network300.node90 	discovery_latency 	1320
scalar Network300.node90 	number_of_desired_resources 	20
scalar Network300.node90 	query_homogenity_rate 	33.333333333333
scalar Network300.node90 	qrecord_time 	19373.500202241
scalar Network300.node90 	discovery_resolution_rate 	33.333333333333
scalar Network300.node290 	rate_of_requesters 	1
scalar Network300.node290 	number_of_resources 	16500
scalar Network300.node290 	time_period 	4
scalar Network300.node290 	number_of_messages 	19
scalar Network300.node290 	discovery_latency 	1308
scalar Network300.node290 	number_of_desired_resources 	20
scalar Network300.node290 	query_homogenity_rate 	33.333333333333
scalar Network300.node290 	qrecord_time 	19643.489270324
scalar Network300.node290 	discovery_resolution_rate 	66.666666666667
scalar Network300.node60 	rate_of_requesters 	1
scalar Network300.node60 	number_of_resources 	16500
scalar Network300.node60 	time_period 	5
scalar Network300.node60 	number_of_messages 	4
scalar Network300.node60 	discovery_latency 	1284
scalar Network300.node60 	number_of_desired_resources 	20
scalar Network300.node60 	query_homogenity_rate 	33.333333333333
scalar Network300.node60 	qrecord_time 	19890.894147168
scalar Network300.node60 	discovery_resolution_rate 	33.333333333333
scalar Network300.node50 	rate_of_requesters 	1
scalar Network300.node50 	number_of_resources 	16500
scalar Network300.node50 	time_period 	7
scalar Network300.node50 	number_of_messages 	56
scalar Network300.node50 	discovery_latency 	1248
scalar Network300.node50 	number_of_desired_resources 	20
scalar Network300.node50 	query_homogenity_rate 	33.333333333333
scalar Network300.node50 	qrecord_time 	19919.61661592
scalar Network300.node50 	discovery_resolution_rate 	66.666666666667
scalar Network300.node250 	rate_of_requesters 	1
scalar Network300.node250 	number_of_resources 	16500
scalar Network300.node250 	time_period 	6
scalar Network300.node250 	number_of_messages 	29
scalar Network300.node250 	discovery_latency 	174
scalar Network300.node250 	number_of_desired_resources 	20
scalar Network300.node250 	query_homogenity_rate 	33.333333333333
scalar Network300.node250 	qrecord_time 	19938.710041776
scalar Network300.node250 	discovery_resolution_rate 	100
scalar Network300.node20 	rate_of_requesters 	1
scalar Network300.node20 	number_of_resources 	16500
scalar Network300.node20 	time_period 	6
scalar Network300.node20 	number_of_messages 	12
scalar Network300.node20 	discovery_latency 	1260
scalar Network300.node20 	number_of_desired_resources 	20
scalar Network300.node20 	query_homogenity_rate 	33.333333333333
scalar Network300.node20 	qrecord_time 	19998.233540145
scalar Network300.node20 	discovery_resolution_rate 	66.666666666667
scalar Network300.node100 	rate_of_requesters 	1
scalar Network300.node100 	number_of_resources 	16500
scalar Network300.node100 	time_period 	4
scalar Network300.node100 	number_of_messages 	6
scalar Network300.node100 	discovery_latency 	1296
scalar Network300.node100 	number_of_desired_resources 	20
scalar Network300.node100 	query_homogenity_rate 	33.333333333333
scalar Network300.node100 	qrecord_time 	20020.119572775
scalar Network300.node100 	discovery_resolution_rate 	33.333333333333
scalar Network300.node260 	rate_of_requesters 	1
scalar Network300.node260 	number_of_resources 	16500
scalar Network300.node260 	time_period 	3
scalar Network300.node260 	number_of_messages 	7
scalar Network300.node260 	discovery_latency 	1248
scalar Network300.node260 	number_of_desired_resources 	20
scalar Network300.node260 	query_homogenity_rate 	33.333333333333
scalar Network300.node260 	qrecord_time 	20117.600323457
scalar Network300.node260 	discovery_resolution_rate 	33.333333333333
scalar Network300.node240 	rate_of_requesters 	1
scalar Network300.node240 	number_of_resources 	16500
scalar Network300.node240 	time_period 	4
scalar Network300.node240 	number_of_messages 	8
scalar Network300.node240 	discovery_latency 	1296
scalar Network300.node240 	number_of_desired_resources 	20
scalar Network300.node240 	query_homogenity_rate 	33.333333333333
scalar Network300.node240 	qrecord_time 	20164.225232923
scalar Network300.node240 	discovery_resolution_rate 	33.333333333333
scalar Network300.node280 	rate_of_requesters 	1
scalar Network300.node280 	number_of_resources 	16500
scalar Network300.node280 	time_period 	5
scalar Network300.node280 	number_of_messages 	61
scalar Network300.node280 	discovery_latency 	1272
scalar Network300.node280 	number_of_desired_resources 	20
scalar Network300.node280 	query_homogenity_rate 	33.333333333333
scalar Network300.node280 	qrecord_time 	20435.81448547
scalar Network300.node280 	discovery_resolution_rate 	50
scalar Network300.node260 	rate_of_requesters 	1
scalar Network300.node260 	number_of_resources 	16500
scalar Network300.node260 	time_period 	4
scalar Network300.node260 	number_of_messages 	6
scalar Network300.node260 	discovery_latency 	1248
scalar Network300.node260 	number_of_desired_resources 	20
scalar Network300.node260 	query_homogenity_rate 	33.333333333333
scalar Network300.node260 	qrecord_time 	20492.96708505
scalar Network300.node260 	discovery_resolution_rate 	33.333333333333
scalar Network300.node270 	rate_of_requesters 	1
scalar Network300.node270 	number_of_resources 	16500
scalar Network300.node270 	time_period 	5
scalar Network300.node270 	number_of_messages 	33
scalar Network300.node270 	discovery_latency 	1248
scalar Network300.node270 	number_of_desired_resources 	20
scalar Network300.node270 	query_homogenity_rate 	33.333333333333
scalar Network300.node270 	qrecord_time 	20633.370743601
scalar Network300.node270 	discovery_resolution_rate 	66.666666666667
scalar Network300.node220 	rate_of_requesters 	1
scalar Network300.node220 	number_of_resources 	16500
scalar Network300.node220 	time_period 	7
scalar Network300.node220 	number_of_messages 	5
scalar Network300.node220 	discovery_latency 	1272
scalar Network300.node220 	number_of_desired_resources 	20
scalar Network300.node220 	query_homogenity_rate 	33.333333333333
scalar Network300.node220 	qrecord_time 	21372.548115477
scalar Network300.node220 	discovery_resolution_rate 	33.333333333333
scalar Network300.node240 	rate_of_requesters 	1
scalar Network300.node240 	number_of_resources 	16500
scalar Network300.node240 	time_period 	5
scalar Network300.node240 	number_of_messages 	22
scalar Network300.node240 	discovery_latency 	168
scalar Network300.node240 	number_of_desired_resources 	20
scalar Network300.node240 	query_homogenity_rate 	33.333333333333
scalar Network300.node240 	qrecord_time 	21467.278384525
scalar Network300.node240 	discovery_resolution_rate 	100
scalar Network300.node70 	rate_of_requesters 	1
scalar Network300.node70 	number_of_resources 	16500
scalar Network300.node70 	time_period 	2
scalar Network300.node70 	number_of_messages 	6
scalar Network300.node70 	discovery_latency 	1284
scalar Network300.node70 	number_of_desired_resources 	20
scalar Network300.node70 	query_homogenity_rate 	33.333333333333
scalar Network300.node70 	qrecord_time 	21544.566179173
scalar Network300.node70 	discovery_resolution_rate 	33.333333333333
scalar Network300.node220 	rate_of_requesters 	1
scalar Network300.node220 	number_of_resources 	16500
scalar Network300.node220 	time_period 	8
scalar Network300.node220 	number_of_messages 	17
scalar Network300.node220 	discovery_latency 	1224
scalar Network300.node220 	number_of_desired_resources 	20
scalar Network300.node220 	query_homogenity_rate 	33.333333333333
scalar Network300.node220 	qrecord_time 	21791.076555953
scalar Network300.node220 	discovery_resolution_rate 	66.666666666667
scalar Network300.node140 	rate_of_requesters 	1
scalar Network300.node140 	number_of_resources 	16500
scalar Network300.node140 	time_period 	3
scalar Network300.node140 	number_of_messages 	12
scalar Network300.node140 	discovery_latency 	1260
scalar Network300.node140 	number_of_desired_resources 	20
scalar Network300.node140 	query_homogenity_rate 	33.333333333333
scalar Network300.node140 	qrecord_time 	21957.607044172
scalar Network300.node140 	discovery_resolution_rate 	33.333333333333
scalar Network300.node230 	rate_of_requesters 	1
scalar Network300.node230 	number_of_resources 	16500
scalar Network300.node230 	time_period 	6
scalar Network300.node230 	number_of_messages 	23
scalar Network300.node230 	discovery_latency 	132
scalar Network300.node230 	number_of_desired_resources 	20
scalar Network300.node230 	query_homogenity_rate 	33.333333333333
scalar Network300.node230 	qrecord_time 	21967.805243999
scalar Network300.node230 	discovery_resolution_rate 	100
scalar Network300.node80 	rate_of_requesters 	1
scalar Network300.node80 	number_of_resources 	16500
scalar Network300.node80 	time_period 	3
scalar Network300.node80 	number_of_messages 	15
scalar Network300.node80 	discovery_latency 	1296
scalar Network300.node80 	number_of_desired_resources 	20
scalar Network300.node80 	query_homogenity_rate 	33.333333333333
scalar Network300.node80 	qrecord_time 	22057.277410697
scalar Network300.node80 	discovery_resolution_rate 	33.333333333333
scalar Network300.node230 	rate_of_requesters 	1
scalar Network300.node230 	number_of_resources 	16500
scalar Network300.node230 	time_period 	5
scalar Network300.node230 	number_of_messages 	6
scalar Network300.node230 	discovery_latency 	1272
scalar Network300.node230 	number_of_desired_resources 	20
scalar Network300.node230 	query_homogenity_rate 	33.333333333333
scalar Network300.node230 	qrecord_time 	22077.434069244
scalar Network300.node230 	discovery_resolution_rate 	33.333333333333
scalar Network300.node210 	rate_of_requesters 	1
scalar Network300.node210 	number_of_resources 	16500
scalar Network300.node210 	time_period 	4
scalar Network300.node210 	number_of_messages 	8
scalar Network300.node210 	discovery_latency 	1272
scalar Network300.node210 	number_of_desired_resources 	20
scalar Network300.node210 	query_homogenity_rate 	33.333333333333
scalar Network300.node210 	qrecord_time 	22087.642061805
scalar Network300.node210 	discovery_resolution_rate 	33.333333333333
scalar Network300.node260 	rate_of_requesters 	1
scalar Network300.node260 	number_of_resources 	16500
scalar Network300.node260 	time_period 	5
scalar Network300.node260 	number_of_messages 	6
scalar Network300.node260 	discovery_latency 	1248
scalar Network300.node260 	number_of_desired_resources 	20
scalar Network300.node260 	query_homogenity_rate 	33.333333333333
scalar Network300.node260 	qrecord_time 	22214.483339595
scalar Network300.node260 	discovery_resolution_rate 	33.333333333333
scalar Network300.node190 	rate_of_requesters 	1
scalar Network300.node190 	number_of_resources 	16500
scalar Network300.node190 	time_period 	5
scalar Network300.node190 	number_of_messages 	6
scalar Network300.node190 	discovery_latency 	1248
scalar Network300.node190 	number_of_desired_resources 	20
scalar Network300.node190 	query_homogenity_rate 	33.333333333333
scalar Network300.node190 	qrecord_time 	22380.614784787
scalar Network300.node190 	discovery_resolution_rate 	33.333333333333
scalar Network300.node20 	rate_of_requesters 	1
scalar Network300.node20 	number_of_resources 	16500
scalar Network300.node20 	time_period 	7
scalar Network300.node20 	number_of_messages 	7
scalar Network300.node20 	discovery_latency 	1260
scalar Network300.node20 	number_of_desired_resources 	20
scalar Network300.node20 	query_homogenity_rate 	33.333333333333
scalar Network300.node20 	qrecord_time 	22392.212687829
scalar Network300.node20 	discovery_resolution_rate 	33.333333333333
scalar Network300.node70 	rate_of_requesters 	1
scalar Network300.node70 	number_of_resources 	16500
scalar Network300.node70 	time_period 	3
scalar Network300.node70 	number_of_messages 	6
scalar Network300.node70 	discovery_latency 	1296
scalar Network300.node70 	number_of_desired_resources 	20
scalar Network300.node70 	query_homogenity_rate 	33.333333333333
scalar Network300.node70 	qrecord_time 	22784.559154528
scalar Network300.node70 	discovery_resolution_rate 	33.333333333333
scalar Network300.node20 	rate_of_requesters 	1
scalar Network300.node20 	number_of_resources 	16500
scalar Network300.node20 	time_period 	8
scalar Network300.node20 	number_of_messages 	7
scalar Network300.node20 	discovery_latency 	1272
scalar Network300.node20 	number_of_desired_resources 	20
scalar Network300.node20 	query_homogenity_rate 	33.333333333333
scalar Network300.node20 	qrecord_time 	22785.194927003
scalar Network300.node20 	discovery_resolution_rate 	33.333333333333
scalar Network300.node50 	rate_of_requesters 	1
scalar Network300.node50 	number_of_resources 	16500
scalar Network300.node50 	time_period 	8
scalar Network300.node50 	number_of_messages 	17
scalar Network300.node50 	discovery_latency 	1260
scalar Network300.node50 	number_of_desired_resources 	20
scalar Network300.node50 	query_homogenity_rate 	33.333333333333
scalar Network300.node50 	qrecord_time 	23027.331218204
scalar Network300.node50 	discovery_resolution_rate 	66.666666666667
scalar Network300.node180 	rate_of_requesters 	1
scalar Network300.node180 	number_of_resources 	16500
scalar Network300.node180 	time_period 	5
scalar Network300.node180 	number_of_messages 	14
scalar Network300.node180 	discovery_latency 	1188
scalar Network300.node180 	number_of_desired_resources 	20
scalar Network300.node180 	query_homogenity_rate 	33.333333333333
scalar Network300.node180 	qrecord_time 	23185.96663854
scalar Network300.node180 	discovery_resolution_rate 	66.666666666667
scalar Network300.node20 	rate_of_requesters 	1
scalar Network300.node20 	number_of_resources 	16500
scalar Network300.node20 	time_period 	9
scalar Network300.node20 	number_of_messages 	9
scalar Network300.node20 	discovery_latency 	1212
scalar Network300.node20 	number_of_desired_resources 	20
scalar Network300.node20 	query_homogenity_rate 	33.333333333333
scalar Network300.node20 	qrecord_time 	23249.499471266
scalar Network300.node20 	discovery_resolution_rate 	33.333333333333
scalar Network300.node110 	rate_of_requesters 	1
scalar Network300.node110 	number_of_resources 	16500
scalar Network300.node110 	time_period 	7
scalar Network300.node110 	number_of_messages 	8
scalar Network300.node110 	discovery_latency 	1272
scalar Network300.node110 	number_of_desired_resources 	20
scalar Network300.node110 	query_homogenity_rate 	33.333333333333
scalar Network300.node110 	qrecord_time 	23332.4485654
scalar Network300.node110 	discovery_resolution_rate 	33.333333333333
scalar Network300.node200 	rate_of_requesters 	1
scalar Network300.node200 	number_of_resources 	16500
scalar Network300.node200 	time_period 	2
scalar Network300.node200 	number_of_messages 	11
scalar Network300.node200 	discovery_latency 	1272
scalar Network300.node200 	number_of_desired_resources 	20
scalar Network300.node200 	query_homogenity_rate 	33.333333333333
scalar Network300.node200 	qrecord_time 	23447.806883658
scalar Network300.node200 	discovery_resolution_rate 	33.333333333333
scalar Network300.node0 	rate_of_requesters 	1
scalar Network300.node0 	number_of_resources 	16500
scalar Network300.node0 	time_period 	4
scalar Network300.node0 	number_of_messages 	9
scalar Network300.node0 	discovery_latency 	1296
scalar Network300.node0 	number_of_desired_resources 	20
scalar Network300.node0 	query_homogenity_rate 	33.333333333333
scalar Network300.node0 	qrecord_time 	23773.201875987
scalar Network300.node0 	discovery_resolution_rate 	33.333333333333
scalar Network300.node40 	rate_of_requesters 	1
scalar Network300.node40 	number_of_resources 	16500
scalar Network300.node40 	time_period 	5
scalar Network300.node40 	number_of_messages 	6
scalar Network300.node40 	discovery_latency 	1272
scalar Network300.node40 	number_of_desired_resources 	20
scalar Network300.node40 	query_homogenity_rate 	33.333333333333
scalar Network300.node40 	qrecord_time 	23856.9870825
scalar Network300.node40 	discovery_resolution_rate 	33.333333333333
scalar Network300.node250 	rate_of_requesters 	1
scalar Network300.node250 	number_of_resources 	16500
scalar Network300.node250 	time_period 	7
scalar Network300.node250 	number_of_messages 	27
scalar Network300.node250 	discovery_latency 	156
scalar Network300.node250 	number_of_desired_resources 	20
scalar Network300.node250 	query_homogenity_rate 	33.333333333333
scalar Network300.node250 	qrecord_time 	24110.580861974
scalar Network300.node250 	discovery_resolution_rate 	100
scalar Network300.node100 	rate_of_requesters 	1
scalar Network300.node100 	number_of_resources 	16500
scalar Network300.node100 	time_period 	5
scalar Network300.node100 	number_of_messages 	8
scalar Network300.node100 	discovery_latency 	1224
scalar Network300.node100 	number_of_desired_resources 	20
scalar Network300.node100 	query_homogenity_rate 	33.333333333333
scalar Network300.node100 	qrecord_time 	24165.74196537
scalar Network300.node100 	discovery_resolution_rate 	33.333333333333
scalar Network300.node290 	rate_of_requesters 	1
scalar Network300.node290 	number_of_resources 	16500
scalar Network300.node290 	time_period 	5
scalar Network300.node290 	number_of_messages 	19
scalar Network300.node290 	discovery_latency 	1296
scalar Network300.node290 	number_of_desired_resources 	20
scalar Network300.node290 	query_homogenity_rate 	33.333333333333
scalar Network300.node290 	qrecord_time 	24199.781414139
scalar Network300.node290 	discovery_resolution_rate 	66.666666666667
scalar Network300.node50 	rate_of_requesters 	1
scalar Network300.node50 	number_of_resources 	16500
scalar Network300.node50 	time_period 	9
scalar Network300.node50 	number_of_messages 	12
scalar Network300.node50 	discovery_latency 	1224
scalar Network300.node50 	number_of_desired_resources 	20
scalar Network300.node50 	query_homogenity_rate 	33.333333333333
scalar Network300.node50 	qrecord_time 	24374.260940905
scalar Network300.node50 	discovery_resolution_rate 	66.666666666667
scalar Network300.node180 	rate_of_requesters 	1
scalar Network300.node180 	number_of_resources 	16500
scalar Network300.node180 	time_period 	6
scalar Network300.node180 	number_of_messages 	9
scalar Network300.node180 	discovery_latency 	1200
scalar Network300.node180 	number_of_desired_resources 	20
scalar Network300.node180 	query_homogenity_rate 	33.333333333333
scalar Network300.node180 	qrecord_time 	24435.330912246
scalar Network300.node180 	discovery_resolution_rate 	33.333333333333
scalar Network300.node240 	rate_of_requesters 	1
scalar Network300.node240 	number_of_resources 	16500
scalar Network300.node240 	time_period 	6
scalar Network300.node240 	number_of_messages 	21
scalar Network300.node240 	discovery_latency 	168
scalar Network300.node240 	number_of_desired_resources 	20
scalar Network300.node240 	query_homogenity_rate 	33.333333333333
scalar Network300.node240 	qrecord_time 	24527.351239189
scalar Network300.node240 	discovery_resolution_rate 	100
scalar Network300.node180 	rate_of_requesters 	1
scalar Network300.node180 	number_of_resources 	16500
scalar Network300.node180 	time_period 	7
scalar Network300.node180 	number_of_messages 	9
scalar Network300.node180 	discovery_latency 	1236
scalar Network300.node180 	number_of_desired_resources 	20
scalar Network300.node180 	query_homogenity_rate 	33.333333333333
scalar Network300.node180 	qrecord_time 	24583.225050131
scalar Network300.node180 	discovery_resolution_rate 	33.333333333333
scalar Network300.node290 	rate_of_requesters 	1
scalar Network300.node290 	number_of_resources 	16500
scalar Network300.node290 	time_period 	6
scalar Network300.node290 	number_of_messages 	29
scalar Network300.node290 	discovery_latency 	192
scalar Network300.node290 	number_of_desired_resources 	20
scalar Network300.node290 	query_homogenity_rate 	33.333333333333
scalar Network300.node290 	qrecord_time 	24707.668560155
scalar Network300.node290 	discovery_resolution_rate 	100
scalar Network300.node110 	rate_of_requesters 	1
scalar Network300.node110 	number_of_resources 	16500
scalar Network300.node110 	time_period 	8
scalar Network300.node110 	number_of_messages 	15
scalar Network300.node110 	discovery_latency 	1248
scalar Network300.node110 	number_of_desired_resources 	20
scalar Network300.node110 	query_homogenity_rate 	33.333333333333
scalar Network300.node110 	qrecord_time 	24803.940083885
scalar Network300.node110 	discovery_resolution_rate 	66.666666666667
scalar Network300.node250 	rate_of_requesters 	1
scalar Network300.node250 	number_of_resources 	16500
scalar Network300.node250 	time_period 	8
scalar Network300.node250 	number_of_messages 	18
scalar Network300.node250 	discovery_latency 	1188
scalar Network300.node250 	number_of_desired_resources 	20
scalar Network300.node250 	query_homogenity_rate 	33.333333333333
scalar Network300.node250 	qrecord_time 	25239.047661083
scalar Network300.node250 	discovery_resolution_rate 	66.666666666667
scalar Network300.node270 	rate_of_requesters 	1
scalar Network300.node270 	number_of_resources 	16500
scalar Network300.node270 	time_period 	6
scalar Network300.node270 	number_of_messages 	22
scalar Network300.node270 	discovery_latency 	1212
scalar Network300.node270 	number_of_desired_resources 	20
scalar Network300.node270 	query_homogenity_rate 	33.333333333333
scalar Network300.node270 	qrecord_time 	25798.31370495
scalar Network300.node270 	discovery_resolution_rate 	66.666666666667
scalar Network300.node180 	rate_of_requesters 	1
scalar Network300.node180 	number_of_resources 	16500
scalar Network300.node180 	time_period 	8
scalar Network300.node180 	number_of_messages 	7
scalar Network300.node180 	discovery_latency 	1236
scalar Network300.node180 	number_of_desired_resources 	20
scalar Network300.node180 	query_homogenity_rate 	33.333333333333
scalar Network300.node180 	qrecord_time 	25885.311746833
scalar Network300.node180 	discovery_resolution_rate 	33.333333333333
scalar Network300.node100 	rate_of_requesters 	1
scalar Network300.node100 	number_of_resources 	16500
scalar Network300.node100 	time_period 	6
scalar Network300.node100 	number_of_messages 	8
scalar Network300.node100 	discovery_latency 	1236
scalar Network300.node100 	number_of_desired_resources 	20
scalar Network300.node100 	query_homogenity_rate 	33.333333333333
scalar Network300.node100 	qrecord_time 	25973.18093657
scalar Network300.node100 	discovery_resolution_rate 	33.333333333333
scalar Network300.node40 	rate_of_requesters 	1
scalar Network300.node40 	number_of_resources 	16500
scalar Network300.node40 	time_period 	6
scalar Network300.node40 	number_of_messages 	6
scalar Network300.node40 	discovery_latency 	1248
scalar Network300.node40 	number_of_desired_resources 	20
scalar Network300.node40 	query_homogenity_rate 	33.333333333333
scalar Network300.node40 	qrecord_time 	25976.482164718
scalar Network300.node40 	discovery_resolution_rate 	33.333333333333
scalar Network300.node150 	rate_of_requesters 	1
[...]
scalar Network300.node290 	number_of_messages 	12
scalar Network300.node290 	discovery_latency 	1236
scalar Network300.node290 	number_of_desired_resources 	20
scalar Network300.node290 	query_homogenity_rate 	33.333333333333
scalar Network300.node290 	qrecord_time 	41345.896635544
scalar Network300.node290 	discovery_resolution_rate 	33.333333333333
scalar Network300.node200 	rate_of_requesters 	1
scalar Network300.node200 	number_of_resources 	16500
scalar Network300.node200 	time_period 	10
scalar Network300.node200 	number_of_messages 	17
scalar Network300.node200 	discovery_latency 	84.000000000003
scalar Network300.node200 	number_of_desired_resources 	20
scalar Network300.node200 	query_homogenity_rate 	33.333333333333
scalar Network300.node200 	qrecord_time 	41552.157846931
scalar Network300.node200 	discovery_resolution_rate 	100
scalar Network300.node230 	rate_of_requesters 	1
scalar Network300.node230 	number_of_resources 	16500
scalar Network300.node230 	time_period 	9
scalar Network300.node230 	number_of_messages 	24
scalar Network300.node230 	discovery_latency 	132
scalar Network300.node230 	number_of_desired_resources 	20
scalar Network300.node230 	query_homogenity_rate 	33.333333333333
scalar Network300.node230 	qrecord_time 	41638.966093695
scalar Network300.node230 	discovery_resolution_rate 	100
scalar Network300.node200 	rate_of_requesters 	1
scalar Network300.node200 	number_of_resources 	16500
scalar Network300.node200 	time_period 	9
scalar Network300.node200 	number_of_messages 	63
scalar Network300.node200 	discovery_latency 	1332
scalar Network300.node200 	number_of_desired_resources 	20
scalar Network300.node200 	query_homogenity_rate 	33.333333333333
scalar Network300.node200 	qrecord_time 	41914.195519434
scalar Network300.node200 	discovery_resolution_rate 	50
scalar Network300.node10 	rate_of_requesters 	1
scalar Network300.node10 	number_of_resources 	16500
scalar Network300.node10 	time_period 	6
scalar Network300.node10 	number_of_messages 	20
scalar Network300.node10 	discovery_latency 	1248
scalar Network300.node10 	number_of_desired_resources 	20
scalar Network300.node10 	query_homogenity_rate 	33.333333333333
scalar Network300.node10 	qrecord_time 	42446.591491178
scalar Network300.node10 	discovery_resolution_rate 	66.666666666667
scalar Network300.node120 	rate_of_requesters 	1
scalar Network300.node120 	number_of_resources 	16500
scalar Network300.node120 	time_period 	9
scalar Network300.node120 	number_of_messages 	57
scalar Network300.node120 	discovery_latency 	936
scalar Network300.node120 	number_of_desired_resources 	20
scalar Network300.node120 	query_homogenity_rate 	33.333333333333
scalar Network300.node120 	qrecord_time 	42912.151510919
scalar Network300.node120 	discovery_resolution_rate 	100
scalar Network300.node210 	rate_of_requesters 	1
scalar Network300.node210 	number_of_resources 	16500
scalar Network300.node210 	time_period 	8
scalar Network300.node210 	number_of_messages 	23
scalar Network300.node210 	discovery_latency 	132
scalar Network300.node210 	number_of_desired_resources 	20
scalar Network300.node210 	query_homogenity_rate 	33.333333333333
scalar Network300.node210 	qrecord_time 	43938.127423994
scalar Network300.node210 	discovery_resolution_rate 	100
scalar Network300.node220 	rate_of_requesters 	1
scalar Network300.node220 	number_of_resources 	16500
scalar Network300.node220 	time_period 	10
scalar Network300.node220 	number_of_messages 	10
scalar Network300.node220 	discovery_latency 	1164
scalar Network300.node220 	number_of_desired_resources 	20
scalar Network300.node220 	query_homogenity_rate 	33.333333333333
scalar Network300.node220 	qrecord_time 	44012.63586968
scalar Network300.node220 	discovery_resolution_rate 	66.666666666667
scalar Network300.node120 	rate_of_requesters 	1
scalar Network300.node120 	number_of_resources 	16500
scalar Network300.node120 	time_period 	10
scalar Network300.node120 	number_of_messages 	33
scalar Network300.node120 	discovery_latency 	384
scalar Network300.node120 	number_of_desired_resources 	20
scalar Network300.node120 	query_homogenity_rate 	33.333333333333
scalar Network300.node120 	qrecord_time 	45108.311551793
scalar Network300.node120 	discovery_resolution_rate 	100
scalar Network300.node230 	rate_of_requesters 	1
scalar Network300.node230 	number_of_resources 	16500
scalar Network300.node230 	time_period 	10
scalar Network300.node230 	number_of_messages 	17
scalar Network300.node230 	discovery_latency 	108
scalar Network300.node230 	number_of_desired_resources 	20
scalar Network300.node230 	query_homogenity_rate 	33.333333333333
scalar Network300.node230 	qrecord_time 	45155.057989862
scalar Network300.node230 	discovery_resolution_rate 	100
scalar Network300.node10 	rate_of_requesters 	1
scalar Network300.node10 	number_of_resources 	16500
scalar Network300.node10 	time_period 	7
scalar Network300.node10 	number_of_messages 	15
scalar Network300.node10 	discovery_latency 	1272
scalar Network300.node10 	number_of_desired_resources 	20
scalar Network300.node10 	query_homogenity_rate 	33.333333333333
scalar Network300.node10 	qrecord_time 	45219.691146024
scalar Network300.node10 	discovery_resolution_rate 	66.666666666667
scalar Network300.node10 	rate_of_requesters 	1
scalar Network300.node10 	number_of_resources 	16500
scalar Network300.node10 	time_period 	8
scalar Network300.node10 	number_of_messages 	21
scalar Network300.node10 	discovery_latency 	1248
scalar Network300.node10 	number_of_desired_resources 	20
scalar Network300.node10 	query_homogenity_rate 	33.333333333333
scalar Network300.node10 	qrecord_time 	46321.278285443
scalar Network300.node10 	discovery_resolution_rate 	66.666666666667
scalar Network300.node80 	rate_of_requesters 	1
scalar Network300.node80 	number_of_resources 	16500
scalar Network300.node80 	time_period 	9
scalar Network300.node80 	number_of_messages 	23
scalar Network300.node80 	discovery_latency 	1248
scalar Network300.node80 	number_of_desired_resources 	20
scalar Network300.node80 	query_homogenity_rate 	33.333333333333
scalar Network300.node80 	qrecord_time 	46506.906517958
scalar Network300.node80 	discovery_resolution_rate 	66.666666666667
scalar Network300.node70 	rate_of_requesters 	1
scalar Network300.node70 	number_of_resources 	16500
scalar Network300.node70 	time_period 	7
scalar Network300.node70 	number_of_messages 	17
scalar Network300.node70 	discovery_latency 	95.999999999997
scalar Network300.node70 	number_of_desired_resources 	20
scalar Network300.node70 	query_homogenity_rate 	33.333333333333
scalar Network300.node70 	qrecord_time 	46977.464455568
scalar Network300.node70 	discovery_resolution_rate 	100
scalar Network300.node150 	rate_of_requesters 	1
scalar Network300.node150 	number_of_resources 	16500
scalar Network300.node150 	time_period 	7
scalar Network300.node150 	number_of_messages 	25
scalar Network300.node150 	discovery_latency 	216
scalar Network300.node150 	number_of_desired_resources 	20
scalar Network300.node150 	query_homogenity_rate 	33.333333333333
scalar Network300.node150 	qrecord_time 	46999.47718098
scalar Network300.node150 	discovery_resolution_rate 	100
scalar Network300.node100 	rate_of_requesters 	1
scalar Network300.node100 	number_of_resources 	16500
scalar Network300.node100 	time_period 	9
scalar Network300.node100 	number_of_messages 	19
scalar Network300.node100 	discovery_latency 	108
scalar Network300.node100 	number_of_desired_resources 	20
scalar Network300.node100 	query_homogenity_rate 	33.333333333333
scalar Network300.node100 	qrecord_time 	47126.809523785
scalar Network300.node100 	discovery_resolution_rate 	100
scalar Network300.node210 	rate_of_requesters 	1
scalar Network300.node210 	number_of_resources 	16500
scalar Network300.node210 	time_period 	9
scalar Network300.node210 	number_of_messages 	21
scalar Network300.node210 	discovery_latency 	1296
scalar Network300.node210 	number_of_desired_resources 	20
scalar Network300.node210 	query_homogenity_rate 	33.333333333333
scalar Network300.node210 	qrecord_time 	48515.757326523
scalar Network300.node210 	discovery_resolution_rate 	66.666666666667
scalar Network300.node0 	rate_of_requesters 	1
scalar Network300.node0 	number_of_resources 	16500
scalar Network300.node0 	time_period 	10
scalar Network300.node0 	number_of_messages 	15
scalar Network300.node0 	discovery_latency 	1260
scalar Network300.node0 	number_of_desired_resources 	20
scalar Network300.node0 	query_homogenity_rate 	33.333333333333
scalar Network300.node0 	qrecord_time 	48924.145641366
scalar Network300.node0 	discovery_resolution_rate 	66.666666666667
scalar Network300.node170 	rate_of_requesters 	1
scalar Network300.node170 	number_of_resources 	16500
scalar Network300.node170 	time_period 	10
scalar Network300.node170 	number_of_messages 	16
scalar Network300.node170 	discovery_latency 	1224
scalar Network300.node170 	number_of_desired_resources 	20
scalar Network300.node170 	query_homogenity_rate 	33.333333333333
scalar Network300.node170 	qrecord_time 	48961.658995537
scalar Network300.node170 	discovery_resolution_rate 	66.666666666667
scalar Network300.node70 	rate_of_requesters 	1
scalar Network300.node70 	number_of_resources 	16500
scalar Network300.node70 	time_period 	8
scalar Network300.node70 	number_of_messages 	103
scalar Network300.node70 	discovery_latency 	1188
scalar Network300.node70 	number_of_desired_resources 	20
scalar Network300.node70 	query_homogenity_rate 	33.333333333333
scalar Network300.node70 	qrecord_time 	49451.552909697
scalar Network300.node70 	discovery_resolution_rate 	83.333333333333
scalar Network300.node210 	rate_of_requesters 	1
scalar Network300.node210 	number_of_resources 	16500
scalar Network300.node210 	time_period 	10
scalar Network300.node210 	number_of_messages 	19
scalar Network300.node210 	discovery_latency 	1308
scalar Network300.node210 	number_of_desired_resources 	20
scalar Network300.node210 	query_homogenity_rate 	33.333333333333
scalar Network300.node210 	qrecord_time 	49455.909191012
scalar Network300.node210 	discovery_resolution_rate 	66.666666666667
scalar Network300.node140 	rate_of_requesters 	1
scalar Network300.node140 	number_of_resources 	16500
scalar Network300.node140 	time_period 	7
scalar Network300.node140 	number_of_messages 	29
scalar Network300.node140 	discovery_latency 	144
scalar Network300.node140 	number_of_desired_resources 	20
scalar Network300.node140 	query_homogenity_rate 	33.333333333333
scalar Network300.node140 	qrecord_time 	49861.589383188
scalar Network300.node140 	discovery_resolution_rate 	100
scalar Network300.node150 	rate_of_requesters 	1
scalar Network300.node150 	number_of_resources 	16500
scalar Network300.node150 	time_period 	8
scalar Network300.node150 	number_of_messages 	19
scalar Network300.node150 	discovery_latency 	1164
scalar Network300.node150 	number_of_desired_resources 	20
scalar Network300.node150 	query_homogenity_rate 	33.333333333333
scalar Network300.node150 	qrecord_time 	49937.207042385
scalar Network300.node150 	discovery_resolution_rate 	66.666666666667
scalar Network300.node100 	rate_of_requesters 	1
scalar Network300.node100 	number_of_resources 	16500
scalar Network300.node100 	time_period 	10
scalar Network300.node100 	number_of_messages 	6
scalar Network300.node100 	discovery_latency 	1296
scalar Network300.node100 	number_of_desired_resources 	20
scalar Network300.node100 	query_homogenity_rate 	33.333333333333
scalar Network300.node100 	qrecord_time 	50455.075063456
scalar Network300.node100 	discovery_resolution_rate 	33.333333333333
scalar Network300.node80 	rate_of_requesters 	1
scalar Network300.node80 	number_of_resources 	16500
scalar Network300.node80 	time_period 	10
scalar Network300.node80 	number_of_messages 	14
scalar Network300.node80 	discovery_latency 	1332
scalar Network300.node80 	number_of_desired_resources 	20
scalar Network300.node80 	query_homogenity_rate 	33.333333333333
scalar Network300.node80 	qrecord_time 	50512.886013077
scalar Network300.node80 	discovery_resolution_rate 	33.333333333333
scalar Network300.node130 	rate_of_requesters 	1
scalar Network300.node130 	number_of_resources 	16500
scalar Network300.node130 	time_period 	8
scalar Network300.node130 	number_of_messages 	17
scalar Network300.node130 	discovery_latency 	132
scalar Network300.node130 	number_of_desired_resources 	20
scalar Network300.node130 	query_homogenity_rate 	33.333333333333
scalar Network300.node130 	qrecord_time 	51287.79695454
scalar Network300.node130 	discovery_resolution_rate 	100
scalar Network300.node190 	rate_of_requesters 	1
scalar Network300.node190 	number_of_resources 	16500
scalar Network300.node190 	time_period 	10
scalar Network300.node190 	number_of_messages 	13
scalar Network300.node190 	discovery_latency 	1308
scalar Network300.node190 	number_of_desired_resources 	20
scalar Network300.node190 	query_homogenity_rate 	33.333333333333
scalar Network300.node190 	qrecord_time 	52707.025307223
scalar Network300.node190 	discovery_resolution_rate 	66.666666666667
scalar Network300.node70 	rate_of_requesters 	1
scalar Network300.node70 	number_of_resources 	16500
scalar Network300.node70 	time_period 	9
scalar Network300.node70 	number_of_messages 	11
scalar Network300.node70 	discovery_latency 	1320
scalar Network300.node70 	number_of_desired_resources 	20
scalar Network300.node70 	query_homogenity_rate 	33.333333333333
scalar Network300.node70 	qrecord_time 	53114.266167052
scalar Network300.node70 	discovery_resolution_rate 	66.666666666667
scalar Network300.node150 	rate_of_requesters 	1
scalar Network300.node150 	number_of_resources 	16500
scalar Network300.node150 	time_period 	9
scalar Network300.node150 	number_of_messages 	23
scalar Network300.node150 	discovery_latency 	1284
scalar Network300.node150 	number_of_desired_resources 	20
scalar Network300.node150 	query_homogenity_rate 	33.333333333333
scalar Network300.node150 	qrecord_time 	53134.955818001
scalar Network300.node150 	discovery_resolution_rate 	66.666666666667
scalar Network300.node160 	rate_of_requesters 	1
scalar Network300.node160 	number_of_resources 	16500
scalar Network300.node160 	time_period 	8
scalar Network300.node160 	number_of_messages 	23
scalar Network300.node160 	discovery_latency 	216
scalar Network300.node160 	number_of_desired_resources 	20
scalar Network300.node160 	query_homogenity_rate 	33.333333333333
scalar Network300.node160 	qrecord_time 	53171.342536564
scalar Network300.node160 	discovery_resolution_rate 	100
scalar Network300.node130 	rate_of_requesters 	1
scalar Network300.node130 	number_of_resources 	16500
scalar Network300.node130 	time_period 	9
scalar Network300.node130 	number_of_messages 	15
scalar Network300.node130 	discovery_latency 	1272
scalar Network300.node130 	number_of_desired_resources 	20
scalar Network300.node130 	query_homogenity_rate 	33.333333333333
scalar Network300.node130 	qrecord_time 	53438.909773127
scalar Network300.node130 	discovery_resolution_rate 	66.666666666667
scalar Network300.node150 	rate_of_requesters 	1
scalar Network300.node150 	number_of_resources 	16500
scalar Network300.node150 	time_period 	10
scalar Network300.node150 	number_of_messages 	23
scalar Network300.node150 	discovery_latency 	1308
scalar Network300.node150 	number_of_desired_resources 	20
scalar Network300.node150 	query_homogenity_rate 	33.333333333333
scalar Network300.node150 	qrecord_time 	53751.046801432
scalar Network300.node150 	discovery_resolution_rate 	66.666666666667
scalar Network300.node10 	rate_of_requesters 	1
scalar Network300.node10 	number_of_resources 	16500
scalar Network300.node10 	time_period 	9
scalar Network300.node10 	number_of_messages 	27
scalar Network300.node10 	discovery_latency 	1320
scalar Network300.node10 	number_of_desired_resources 	20
scalar Network300.node10 	query_homogenity_rate 	33.333333333333
scalar Network300.node10 	qrecord_time 	54377.79768149
scalar Network300.node10 	discovery_resolution_rate 	66.666666666667
scalar Network300.node140 	rate_of_requesters 	1
scalar Network300.node140 	number_of_resources 	16500
scalar Network300.node140 	time_period 	8
scalar Network300.node140 	number_of_messages 	56
scalar Network300.node140 	discovery_latency 	1176
scalar Network300.node140 	number_of_desired_resources 	20
scalar Network300.node140 	query_homogenity_rate 	33.333333333333
scalar Network300.node140 	qrecord_time 	54758.035444598
scalar Network300.node140 	discovery_resolution_rate 	66.666666666667
scalar Network300.node160 	rate_of_requesters 	1
scalar Network300.node160 	number_of_resources 	16500
scalar Network300.node160 	time_period 	9
scalar Network300.node160 	number_of_messages 	10
scalar Network300.node160 	discovery_latency 	1332
scalar Network300.node160 	number_of_desired_resources 	20
scalar Network300.node160 	query_homogenity_rate 	33.333333333333
scalar Network300.node160 	qrecord_time 	55007.180954663
scalar Network300.node160 	discovery_resolution_rate 	33.333333333333
scalar Network300.node70 	rate_of_requesters 	1
scalar Network300.node70 	number_of_resources 	16500
scalar Network300.node70 	time_period 	10
scalar Network300.node70 	number_of_messages 	17
scalar Network300.node70 	discovery_latency 	95.999999999997
scalar Network300.node70 	number_of_desired_resources 	20
scalar Network300.node70 	query_homogenity_rate 	33.333333333333
scalar Network300.node70 	qrecord_time 	55506.635491736
scalar Network300.node70 	discovery_resolution_rate 	100
scalar Network300.node160 	rate_of_requesters 	1
scalar Network300.node160 	number_of_resources 	16500
scalar Network300.node160 	time_period 	10
scalar Network300.node160 	number_of_messages 	23
scalar Network300.node160 	discovery_latency 	216
scalar Network300.node160 	number_of_desired_resources 	20
scalar Network300.node160 	query_homogenity_rate 	33.333333333333
scalar Network300.node160 	qrecord_time 	55811.466110462
scalar Network300.node160 	discovery_resolution_rate 	100
scalar Network300.node140 	rate_of_requesters 	1
scalar Network300.node140 	number_of_resources 	16500
scalar Network300.node140 	time_period 	9
scalar Network300.node140 	number_of_messages 	29
scalar Network300.node140 	discovery_latency 	144
scalar Network300.node140 	number_of_desired_resources 	20
scalar Network300.node140 	query_homogenity_rate 	33.333333333333
scalar Network300.node140 	qrecord_time 	57403.820907539
scalar Network300.node140 	discovery_resolution_rate 	100
scalar Network300.node140 	rate_of_requesters 	1
scalar Network300.node140 	number_of_resources 	16500
scalar Network300.node140 	time_period 	10
scalar Network300.node140 	number_of_messages 	31
scalar Network300.node140 	discovery_latency 	216
scalar Network300.node140 	number_of_desired_resources 	20
scalar Network300.node140 	query_homogenity_rate 	33.333333333333
scalar Network300.node140 	qrecord_time 	57678.051031323
scalar Network300.node140 	discovery_resolution_rate 	100
scalar Network300.node130 	rate_of_requesters 	1
scalar Network300.node130 	number_of_resources 	16500
scalar Network300.node130 	time_period 	10
scalar Network300.node130 	number_of_messages 	59
scalar Network300.node130 	discovery_latency 	1116
scalar Network300.node130 	number_of_desired_resources 	20
scalar Network300.node130 	query_homogenity_rate 	33.333333333333
scalar Network300.node130 	qrecord_time 	59186.665806106
scalar Network300.node130 	discovery_resolution_rate 	100
scalar Network300.node10 	rate_of_requesters 	1
scalar Network300.node10 	number_of_resources 	16500
scalar Network300.node10 	time_period 	10
scalar Network300.node10 	number_of_messages 	27
scalar Network300.node10 	discovery_latency 	216
scalar Network300.node10 	number_of_desired_resources 	20
scalar Network300.node10 	query_homogenity_rate 	33.333333333333
scalar Network300.node10 	qrecord_time 	63946.477076156
scalar Network300.node10 	discovery_resolution_rate 	100
