version 2
run net300-2-20150623-18:20:47-8376
attr as 1
attr configname net300
attr datetime 20150623-18:20:47
attr dnor 20
attr experiment net300
attr inifile omnetpp.ini
attr iterationvars "$rhdrq=3, $dnor=20, $as=1"
attr iterationvars2 "$rhdrq=3, $dnor=20, $as=1, $repetition=2"
attr measurement "$rhdrq=3, $dnor=20, $as=1"
attr network Network300
attr processid 8376
attr repetition 2
attr replication #2
attr resultdir results
attr rhdrq 3
attr runnumber 2
attr seedset 2

scalar . 	as 	1
scalar . 	dnor 	20
scalar . 	rhdrq 	3
scalar Network300.node120 	rate_of_requesters 	1
scalar Network300.node120 	number_of_resources 	16500
scalar Network300.node120 	time_period 	1
scalar Network300.node120 	number_of_messages 	25
scalar Network300.node120 	discovery_latency 	180
scalar Network300.node120 	number_of_desired_resources 	20
scalar Network300.node120 	query_homogenity_rate 	33.333333333333
scalar Network300.node120 	qrecord_time 	4888
scalar Network300.node120 	discovery_resolution_rate 	100
scalar Network300.node280 	rate_of_requesters 	1
scalar Network300.node280 	number_of_resources 	16500
scalar Network300.node280 	time_period 	1
scalar Network300.node280 	number_of_messages 	23
scalar Network300.node280 	discovery_latency 	1356
scalar Network300.node280 	number_of_desired_resources 	20
scalar Network300.node280 	query_homogenity_rate 	33.333333333333
scalar Network300.node280 	qrecord_time 	6040
scalar Network300.node280 	discovery_resolution_rate 	66.666666666667
scalar Network300.node240 	rate_of_requesters 	1
scalar Network300.node240 	number_of_resources 	16500
scalar Network300.node240 	time_period 	1
scalar Network300.node240 	number_of_messages 	29
scalar Network300.node240 	discovery_latency 	1524
scalar Network300.node240 	number_of_desired_resources 	20
scalar Network300.node240 	query_homogenity_rate 	33.333333333333
scalar Network300.node240 	qrecord_time 	6166
scalar Network300.node240 	discovery_resolution_rate 	66.666666666667
scalar Network300.node260 	rate_of_requesters 	1
scalar Network300.node260 	number_of_resources 	16500
scalar Network300.node260 	time_period 	1
scalar Network300.node260 	number_of_messages 	15
scalar Network300.node260 	discovery_latency 	1464
scalar Network300.node260 	number_of_desired_resources 	20
scalar Network300.node260 	query_homogenity_rate 	33.333333333333
scalar Network300.node260 	qrecord_time 	6196
scalar Network300.node260 	discovery_resolution_rate 	66.666666666667
scalar Network300.node100 	rate_of_requesters 	1
scalar Network300.node100 	number_of_resources 	16500
scalar Network300.node100 	time_period 	1
scalar Network300.node100 	number_of_messages 	15
scalar Network300.node100 	discovery_latency 	1512
scalar Network300.node100 	number_of_desired_resources 	20
scalar Network300.node100 	query_homogenity_rate 	33.333333333333
scalar Network300.node100 	qrecord_time 	6202
scalar Network300.node100 	discovery_resolution_rate 	33.333333333333
scalar Network300.node140 	rate_of_requesters 	1
scalar Network300.node140 	number_of_resources 	16500
scalar Network300.node140 	time_period 	1
scalar Network300.node140 	number_of_messages 	14
scalar Network300.node140 	discovery_latency 	1548
scalar Network300.node140 	number_of_desired_resources 	20
scalar Network300.node140 	query_homogenity_rate 	33.333333333333
scalar Network300.node140 	qrecord_time 	6214
scalar Network300.node140 	discovery_resolution_rate 	33.333333333333
scalar Network300.node160 	rate_of_requesters 	1
scalar Network300.node160 	number_of_resources 	16500
scalar Network300.node160 	time_period 	1
scalar Network300.node160 	number_of_messages 	23
scalar Network300.node160 	discovery_latency 	1524
scalar Network300.node160 	number_of_desired_resources 	20
scalar Network300.node160 	query_homogenity_rate 	33.333333333333
scalar Network300.node160 	qrecord_time 	6232
scalar Network300.node160 	discovery_resolution_rate 	66.666666666667
scalar Network300.node20 	rate_of_requesters 	1
scalar Network300.node20 	number_of_resources 	16500
scalar Network300.node20 	time_period 	1
scalar Network300.node20 	number_of_messages 	7
scalar Network300.node20 	discovery_latency 	1560
scalar Network300.node20 	number_of_desired_resources 	20
scalar Network300.node20 	query_homogenity_rate 	33.333333333333
scalar Network300.node20 	qrecord_time 	6232
scalar Network300.node20 	discovery_resolution_rate 	33.333333333333
scalar Network300.node110 	rate_of_requesters 	1
scalar Network300.node110 	number_of_resources 	16500
scalar Network300.node110 	time_period 	1
scalar Network300.node110 	number_of_messages 	19
scalar Network300.node110 	discovery_latency 	1608
scalar Network300.node110 	number_of_desired_resources 	20
scalar Network300.node110 	query_homogenity_rate 	33.333333333333
scalar Network300.node110 	qrecord_time 	6256
scalar Network300.node110 	discovery_resolution_rate 	66.666666666667
scalar Network300.node0 	rate_of_requesters 	1
scalar Network300.node0 	number_of_resources 	16500
scalar Network300.node0 	time_period 	1
scalar Network300.node0 	number_of_messages 	22
scalar Network300.node0 	discovery_latency 	1536
scalar Network300.node0 	number_of_desired_resources 	20
scalar Network300.node0 	query_homogenity_rate 	33.333333333333
scalar Network300.node0 	qrecord_time 	6256
scalar Network300.node0 	discovery_resolution_rate 	66.666666666667
scalar Network300.node180 	rate_of_requesters 	1
scalar Network300.node180 	number_of_resources 	16500
scalar Network300.node180 	time_period 	1
scalar Network300.node180 	number_of_messages 	5
scalar Network300.node180 	discovery_latency 	1536
scalar Network300.node180 	number_of_desired_resources 	20
scalar Network300.node180 	query_homogenity_rate 	33.333333333333
scalar Network300.node180 	qrecord_time 	6262
scalar Network300.node180 	discovery_resolution_rate 	33.333333333333
scalar Network300.node250 	rate_of_requesters 	1
scalar Network300.node250 	number_of_resources 	16500
scalar Network300.node250 	time_period 	1
scalar Network300.node250 	number_of_messages 	13
scalar Network300.node250 	discovery_latency 	1536
scalar Network300.node250 	number_of_desired_resources 	20
scalar Network300.node250 	query_homogenity_rate 	33.333333333333
scalar Network300.node250 	qrecord_time 	6268
scalar Network300.node250 	discovery_resolution_rate 	33.333333333333
scalar Network300.node170 	rate_of_requesters 	1
scalar Network300.node170 	number_of_resources 	16500
scalar Network300.node170 	time_period 	1
scalar Network300.node170 	number_of_messages 	9
scalar Network300.node170 	discovery_latency 	1548
scalar Network300.node170 	number_of_desired_resources 	20
scalar Network300.node170 	query_homogenity_rate 	33.333333333333
scalar Network300.node170 	qrecord_time 	6280
scalar Network300.node170 	discovery_resolution_rate 	66.666666666667
scalar Network300.node130 	rate_of_requesters 	1
scalar Network300.node130 	number_of_resources 	16500
scalar Network300.node130 	time_period 	1
scalar Network300.node130 	number_of_messages 	16
scalar Network300.node130 	discovery_latency 	1500
scalar Network300.node130 	number_of_desired_resources 	20
scalar Network300.node130 	query_homogenity_rate 	33.333333333333
scalar Network300.node130 	qrecord_time 	6280
scalar Network300.node130 	discovery_resolution_rate 	66.666666666667
scalar Network300.node60 	rate_of_requesters 	1
scalar Network300.node60 	number_of_resources 	16500
scalar Network300.node60 	time_period 	1
scalar Network300.node60 	number_of_messages 	22
scalar Network300.node60 	discovery_latency 	1572
scalar Network300.node60 	number_of_desired_resources 	20
scalar Network300.node60 	query_homogenity_rate 	33.333333333333
scalar Network300.node60 	qrecord_time 	6286
scalar Network300.node60 	discovery_resolution_rate 	66.666666666667
scalar Network300.node150 	rate_of_requesters 	1
scalar Network300.node150 	number_of_resources 	16500
scalar Network300.node150 	time_period 	1
scalar Network300.node150 	number_of_messages 	17
scalar Network300.node150 	discovery_latency 	1560
scalar Network300.node150 	number_of_desired_resources 	20
scalar Network300.node150 	query_homogenity_rate 	33.333333333333
scalar Network300.node150 	qrecord_time 	6292
scalar Network300.node150 	discovery_resolution_rate 	33.333333333333
scalar Network300.node90 	rate_of_requesters 	1
scalar Network300.node90 	number_of_resources 	16500
scalar Network300.node90 	time_period 	1
scalar Network300.node90 	number_of_messages 	12
scalar Network300.node90 	discovery_latency 	1524
scalar Network300.node90 	number_of_desired_resources 	20
scalar Network300.node90 	query_homogenity_rate 	33.333333333333
scalar Network300.node90 	qrecord_time 	6292
scalar Network300.node90 	discovery_resolution_rate 	66.666666666667
scalar Network300.node230 	rate_of_requesters 	1
scalar Network300.node230 	number_of_resources 	16500
scalar Network300.node230 	time_period 	1
scalar Network300.node230 	number_of_messages 	14
scalar Network300.node230 	discovery_latency 	1536
scalar Network300.node230 	number_of_desired_resources 	20
scalar Network300.node230 	query_homogenity_rate 	33.333333333333
scalar Network300.node230 	qrecord_time 	6304
scalar Network300.node230 	discovery_resolution_rate 	66.666666666667
scalar Network300.node200 	rate_of_requesters 	1
scalar Network300.node200 	number_of_resources 	16500
scalar Network300.node200 	time_period 	1
scalar Network300.node200 	number_of_messages 	5
scalar Network300.node200 	discovery_latency 	1596
scalar Network300.node200 	number_of_desired_resources 	20
scalar Network300.node200 	query_homogenity_rate 	33.333333333333
scalar Network300.node200 	qrecord_time 	6310
scalar Network300.node200 	discovery_resolution_rate 	33.333333333333
scalar Network300.node10 	rate_of_requesters 	1
scalar Network300.node10 	number_of_resources 	16500
scalar Network300.node10 	time_period 	1
scalar Network300.node10 	number_of_messages 	25
scalar Network300.node10 	discovery_latency 	1572
scalar Network300.node10 	number_of_desired_resources 	20
scalar Network300.node10 	query_homogenity_rate 	33.333333333333
scalar Network300.node10 	qrecord_time 	6310
scalar Network300.node10 	discovery_resolution_rate 	66.666666666667
scalar Network300.node210 	rate_of_requesters 	1
scalar Network300.node210 	number_of_resources 	16500
scalar Network300.node210 	time_period 	1
scalar Network300.node210 	number_of_messages 	17
scalar Network300.node210 	discovery_latency 	1596
scalar Network300.node210 	number_of_desired_resources 	20
scalar Network300.node210 	query_homogenity_rate 	33.333333333333
scalar Network300.node210 	qrecord_time 	6328
scalar Network300.node210 	discovery_resolution_rate 	66.666666666667
scalar Network300.node290 	rate_of_requesters 	1
scalar Network300.node290 	number_of_resources 	16500
scalar Network300.node290 	time_period 	1
scalar Network300.node290 	number_of_messages 	7
scalar Network300.node290 	discovery_latency 	1572
scalar Network300.node290 	number_of_desired_resources 	20
scalar Network300.node290 	query_homogenity_rate 	33.333333333333
scalar Network300.node290 	qrecord_time 	6328
scalar Network300.node290 	discovery_resolution_rate 	33.333333333333
scalar Network300.node30 	rate_of_requesters 	1
scalar Network300.node30 	number_of_resources 	16500
scalar Network300.node30 	time_period 	1
scalar Network300.node30 	number_of_messages 	5
scalar Network300.node30 	discovery_latency 	1632
scalar Network300.node30 	number_of_desired_resources 	20
scalar Network300.node30 	query_homogenity_rate 	33.333333333333
scalar Network300.node30 	qrecord_time 	6328
scalar Network300.node30 	discovery_resolution_rate 	33.333333333333
scalar Network300.node70 	rate_of_requesters 	1
scalar Network300.node70 	number_of_resources 	16500
scalar Network300.node70 	time_period 	1
scalar Network300.node70 	number_of_messages 	5
scalar Network300.node70 	discovery_latency 	1572
scalar Network300.node70 	number_of_desired_resources 	20
scalar Network300.node70 	query_homogenity_rate 	33.333333333333
scalar Network300.node70 	qrecord_time 	6346
scalar Network300.node70 	discovery_resolution_rate 	33.333333333333
scalar Network300.node50 	rate_of_requesters 	1
scalar Network300.node50 	number_of_resources 	16500
scalar Network300.node50 	time_period 	1
scalar Network300.node50 	number_of_messages 	4
scalar Network300.node50 	discovery_latency 	1620
scalar Network300.node50 	number_of_desired_resources 	20
scalar Network300.node50 	query_homogenity_rate 	33.333333333333
scalar Network300.node50 	qrecord_time 	6370
scalar Network300.node50 	discovery_resolution_rate 	33.333333333333
scalar Network300.node40 	rate_of_requesters 	1
scalar Network300.node40 	number_of_resources 	16500
scalar Network300.node40 	time_period 	1
scalar Network300.node40 	number_of_messages 	18
scalar Network300.node40 	discovery_latency 	1668
scalar Network300.node40 	number_of_desired_resources 	20
scalar Network300.node40 	query_homogenity_rate 	33.333333333333
scalar Network300.node40 	qrecord_time 	6382
scalar Network300.node40 	discovery_resolution_rate 	66.666666666667
scalar Network300.node190 	rate_of_requesters 	1
scalar Network300.node190 	number_of_resources 	16500
scalar Network300.node190 	time_period 	1
scalar Network300.node190 	number_of_messages 	3
scalar Network300.node190 	discovery_latency 	1620
scalar Network300.node190 	number_of_desired_resources 	20
scalar Network300.node190 	query_homogenity_rate 	33.333333333333
scalar Network300.node190 	qrecord_time 	6388
scalar Network300.node190 	discovery_resolution_rate 	33.333333333333
scalar Network300.node220 	rate_of_requesters 	1
scalar Network300.node220 	number_of_resources 	16500
scalar Network300.node220 	time_period 	1
scalar Network300.node220 	number_of_messages 	5
scalar Network300.node220 	discovery_latency 	1680
scalar Network300.node220 	number_of_desired_resources 	20
scalar Network300.node220 	query_homogenity_rate 	33.333333333333
scalar Network300.node220 	qrecord_time 	6454
scalar Network300.node220 	discovery_resolution_rate 	33.333333333333
scalar Network300.node80 	rate_of_requesters 	1
scalar Network300.node80 	number_of_resources 	16500
scalar Network300.node80 	time_period 	1
scalar Network300.node80 	number_of_messages 	5
scalar Network300.node80 	discovery_latency 	1704
scalar Network300.node80 	number_of_desired_resources 	20
scalar Network300.node80 	query_homogenity_rate 	33.333333333333
scalar Network300.node80 	qrecord_time 	6460
scalar Network300.node80 	discovery_resolution_rate 	33.333333333333
scalar Network300.node270 	rate_of_requesters 	1
scalar Network300.node270 	number_of_resources 	16500
scalar Network300.node270 	time_period 	1
scalar Network300.node270 	number_of_messages 	5
scalar Network300.node270 	discovery_latency 	1608
scalar Network300.node270 	number_of_desired_resources 	20
scalar Network300.node270 	query_homogenity_rate 	33.333333333333
scalar Network300.node270 	qrecord_time 	6460
scalar Network300.node270 	discovery_resolution_rate 	33.333333333333
scalar Network300.node10 	rate_of_requesters 	1
scalar Network300.node10 	number_of_resources 	16500
scalar Network300.node10 	time_period 	2
scalar Network300.node10 	number_of_messages 	10
scalar Network300.node10 	discovery_latency 	1560
scalar Network300.node10 	number_of_desired_resources 	20
scalar Network300.node10 	query_homogenity_rate 	33.333333333333
scalar Network300.node10 	qrecord_time 	6518.843394142
scalar Network300.node10 	discovery_resolution_rate 	33.333333333333
scalar Network300.node240 	rate_of_requesters 	1
scalar Network300.node240 	number_of_resources 	16500
scalar Network300.node240 	time_period 	2
scalar Network300.node240 	number_of_messages 	10
scalar Network300.node240 	discovery_latency 	1632
scalar Network300.node240 	number_of_desired_resources 	20
scalar Network300.node240 	query_homogenity_rate 	33.333333333333
scalar Network300.node240 	qrecord_time 	6651.816265111
scalar Network300.node240 	discovery_resolution_rate 	33.333333333333
scalar Network300.node280 	rate_of_requesters 	1
scalar Network300.node280 	number_of_resources 	16500
scalar Network300.node280 	time_period 	2
scalar Network300.node280 	number_of_messages 	10
scalar Network300.node280 	discovery_latency 	1632
scalar Network300.node280 	number_of_desired_resources 	20
scalar Network300.node280 	query_homogenity_rate 	33.333333333333
scalar Network300.node280 	qrecord_time 	6723.895309005
scalar Network300.node280 	discovery_resolution_rate 	33.333333333333
scalar Network300.node280 	rate_of_requesters 	1
scalar Network300.node280 	number_of_resources 	16500
scalar Network300.node280 	time_period 	3
scalar Network300.node280 	number_of_messages 	10
scalar Network300.node280 	discovery_latency 	1572
scalar Network300.node280 	number_of_desired_resources 	20
scalar Network300.node280 	query_homogenity_rate 	33.333333333333
scalar Network300.node280 	qrecord_time 	6826.614332454
scalar Network300.node280 	discovery_resolution_rate 	33.333333333333
scalar Network300.node40 	rate_of_requesters 	1
scalar Network300.node40 	number_of_resources 	16500
scalar Network300.node40 	time_period 	2
scalar Network300.node40 	number_of_messages 	6
scalar Network300.node40 	discovery_latency 	1596
scalar Network300.node40 	number_of_desired_resources 	20
scalar Network300.node40 	query_homogenity_rate 	33.333333333333
scalar Network300.node40 	qrecord_time 	6967.968600947
scalar Network300.node40 	discovery_resolution_rate 	33.333333333333
scalar Network300.node270 	rate_of_requesters 	1
scalar Network300.node270 	number_of_resources 	16500
scalar Network300.node270 	time_period 	2
scalar Network300.node270 	number_of_messages 	6
scalar Network300.node270 	discovery_latency 	1620
scalar Network300.node270 	number_of_desired_resources 	20
scalar Network300.node270 	query_homogenity_rate 	33.333333333333
scalar Network300.node270 	qrecord_time 	7041.277970208
scalar Network300.node270 	discovery_resolution_rate 	33.333333333333
scalar Network300.node180 	rate_of_requesters 	1
scalar Network300.node180 	number_of_resources 	16500
scalar Network300.node180 	time_period 	2
scalar Network300.node180 	number_of_messages 	9
scalar Network300.node180 	discovery_latency 	1572
scalar Network300.node180 	number_of_desired_resources 	20
scalar Network300.node180 	query_homogenity_rate 	33.333333333333
scalar Network300.node180 	qrecord_time 	7090.659109083
scalar Network300.node180 	discovery_resolution_rate 	33.333333333333
scalar Network300.node60 	rate_of_requesters 	1
scalar Network300.node60 	number_of_resources 	16500
scalar Network300.node60 	time_period 	2
scalar Network300.node60 	number_of_messages 	14
scalar Network300.node60 	discovery_latency 	1584
scalar Network300.node60 	number_of_desired_resources 	20
scalar Network300.node60 	query_homogenity_rate 	33.333333333333
scalar Network300.node60 	qrecord_time 	7248.724094735
scalar Network300.node60 	discovery_resolution_rate 	33.333333333333
scalar Network300.node30 	rate_of_requesters 	1
scalar Network300.node30 	number_of_resources 	16500
scalar Network300.node30 	time_period 	2
scalar Network300.node30 	number_of_messages 	8
scalar Network300.node30 	discovery_latency 	1692
scalar Network300.node30 	number_of_desired_resources 	20
scalar Network300.node30 	query_homogenity_rate 	33.333333333333
scalar Network300.node30 	qrecord_time 	7607.808842716
scalar Network300.node30 	discovery_resolution_rate 	33.333333333333
scalar Network300.node180 	rate_of_requesters 	1
scalar Network300.node180 	number_of_resources 	16500
scalar Network300.node180 	time_period 	3
scalar Network300.node180 	number_of_messages 	11
scalar Network300.node180 	discovery_latency 	1608
scalar Network300.node180 	number_of_desired_resources 	20
scalar Network300.node180 	query_homogenity_rate 	33.333333333333
scalar Network300.node180 	qrecord_time 	7714.441840521
scalar Network300.node180 	discovery_resolution_rate 	33.333333333333
scalar Network300.node180 	rate_of_requesters 	1
scalar Network300.node180 	number_of_resources 	16500
scalar Network300.node180 	time_period 	4
scalar Network300.node180 	number_of_messages 	11
scalar Network300.node180 	discovery_latency 	1572
scalar Network300.node180 	number_of_desired_resources 	20
scalar Network300.node180 	query_homogenity_rate 	33.333333333333
scalar Network300.node180 	qrecord_time 	7720.250534121
scalar Network300.node180 	discovery_resolution_rate 	33.333333333333
scalar Network300.node180 	rate_of_requesters 	1
scalar Network300.node180 	number_of_resources 	16500
scalar Network300.node180 	time_period 	5
scalar Network300.node180 	number_of_messages 	20
scalar Network300.node180 	discovery_latency 	1512
scalar Network300.node180 	number_of_desired_resources 	20
scalar Network300.node180 	query_homogenity_rate 	33.333333333333
scalar Network300.node180 	qrecord_time 	8102.9273675
scalar Network300.node180 	discovery_resolution_rate 	33.333333333333
scalar Network300.node160 	rate_of_requesters 	1
scalar Network300.node160 	number_of_resources 	16500
scalar Network300.node160 	time_period 	2
scalar Network300.node160 	number_of_messages 	12
scalar Network300.node160 	discovery_latency 	1560
scalar Network300.node160 	number_of_desired_resources 	20
scalar Network300.node160 	query_homogenity_rate 	33.333333333333
scalar Network300.node160 	qrecord_time 	8574.721181927
scalar Network300.node160 	discovery_resolution_rate 	33.333333333333
scalar Network300.node240 	rate_of_requesters 	1
scalar Network300.node240 	number_of_resources 	16500
scalar Network300.node240 	time_period 	3
scalar Network300.node240 	number_of_messages 	29
scalar Network300.node240 	discovery_latency 	1644
scalar Network300.node240 	number_of_desired_resources 	20
scalar Network300.node240 	query_homogenity_rate 	33.333333333333
scalar Network300.node240 	qrecord_time 	8636.390353931
scalar Network300.node240 	discovery_resolution_rate 	66.666666666667
scalar Network300.node290 	rate_of_requesters 	1
scalar Network300.node290 	number_of_resources 	16500
scalar Network300.node290 	time_period 	3
scalar Network300.node290 	number_of_messages 	33
scalar Network300.node290 	discovery_latency 	276
scalar Network300.node290 	number_of_desired_resources 	20
scalar Network300.node290 	query_homogenity_rate 	33.333333333333
scalar Network300.node290 	qrecord_time 	8696.292609435
scalar Network300.node290 	discovery_resolution_rate 	100
scalar Network300.node170 	rate_of_requesters 	1
scalar Network300.node170 	number_of_resources 	16500
scalar Network300.node170 	time_period 	2
scalar Network300.node170 	number_of_messages 	23
scalar Network300.node170 	discovery_latency 	1656
scalar Network300.node170 	number_of_desired_resources 	20
scalar Network300.node170 	query_homogenity_rate 	33.333333333333
scalar Network300.node170 	qrecord_time 	8704.59305565
scalar Network300.node170 	discovery_resolution_rate 	33.333333333333
scalar Network300.node90 	rate_of_requesters 	1
scalar Network300.node90 	number_of_resources 	16500
scalar Network300.node90 	time_period 	2
scalar Network300.node90 	number_of_messages 	6
scalar Network300.node90 	discovery_latency 	1644
scalar Network300.node90 	number_of_desired_resources 	20
scalar Network300.node90 	query_homogenity_rate 	33.333333333333
scalar Network300.node90 	qrecord_time 	8887.704606552
scalar Network300.node90 	discovery_resolution_rate 	33.333333333333
scalar Network300.node120 	rate_of_requesters 	1
scalar Network300.node120 	number_of_resources 	16500
scalar Network300.node120 	time_period 	2
scalar Network300.node120 	number_of_messages 	40
scalar Network300.node120 	discovery_latency 	1536
scalar Network300.node120 	number_of_desired_resources 	20
scalar Network300.node120 	query_homogenity_rate 	33.333333333333
scalar Network300.node120 	qrecord_time 	8893.754855264
scalar Network300.node120 	discovery_resolution_rate 	33.333333333333
scalar Network300.node270 	rate_of_requesters 	1
scalar Network300.node270 	number_of_resources 	16500
scalar Network300.node270 	time_period 	3
scalar Network300.node270 	number_of_messages 	27
scalar Network300.node270 	discovery_latency 	1680
scalar Network300.node270 	number_of_desired_resources 	20
scalar Network300.node270 	query_homogenity_rate 	33.333333333333
scalar Network300.node270 	qrecord_time 	9019.171124968
scalar Network300.node270 	discovery_resolution_rate 	33.333333333333
scalar Network300.node170 	rate_of_requesters 	1
scalar Network300.node170 	number_of_resources 	16500
scalar Network300.node170 	time_period 	3
scalar Network300.node170 	number_of_messages 	19
scalar Network300.node170 	discovery_latency 	1680
scalar Network300.node170 	number_of_desired_resources 	20
scalar Network300.node170 	query_homogenity_rate 	33.333333333333
scalar Network300.node170 	qrecord_time 	9020.205239032
scalar Network300.node170 	discovery_resolution_rate 	33.333333333333
scalar Network300.node150 	rate_of_requesters 	1
scalar Network300.node150 	number_of_resources 	16500
scalar Network300.node150 	time_period 	3
scalar Network300.node150 	number_of_messages 	42
scalar Network300.node150 	discovery_latency 	1512
scalar Network300.node150 	number_of_desired_resources 	20
scalar Network300.node150 	query_homogenity_rate 	33.333333333333
scalar Network300.node150 	qrecord_time 	9071.069343654
scalar Network300.node150 	discovery_resolution_rate 	66.666666666667
scalar Network300.node150 	rate_of_requesters 	1
scalar Network300.node150 	number_of_resources 	16500
scalar Network300.node150 	time_period 	2
scalar Network300.node150 	number_of_messages 	16
scalar Network300.node150 	discovery_latency 	1680
scalar Network300.node150 	number_of_desired_resources 	20
scalar Network300.node150 	query_homogenity_rate 	33.333333333333
scalar Network300.node150 	qrecord_time 	9153.267448944
scalar Network300.node150 	discovery_resolution_rate 	33.333333333333
scalar Network300.node270 	rate_of_requesters 	1
scalar Network300.node270 	number_of_resources 	16500
scalar Network300.node270 	time_period 	4
scalar Network300.node270 	number_of_messages 	37
scalar Network300.node270 	discovery_latency 	1644
scalar Network300.node270 	number_of_desired_resources 	20
scalar Network300.node270 	query_homogenity_rate 	33.333333333333
scalar Network300.node270 	qrecord_time 	9184.044844253
scalar Network300.node270 	discovery_resolution_rate 	33.333333333333
scalar Network300.node290 	rate_of_requesters 	1
scalar Network300.node290 	number_of_resources 	16500
scalar Network300.node290 	time_period 	2
scalar Network300.node290 	number_of_messages 	41
scalar Network300.node290 	discovery_latency 	1632
scalar Network300.node290 	number_of_desired_resources 	20
scalar Network300.node290 	query_homogenity_rate 	33.333333333333
scalar Network300.node290 	qrecord_time 	9274.937988261
scalar Network300.node290 	discovery_resolution_rate 	33.333333333333
scalar Network300.node0 	rate_of_requesters 	1
scalar Network300.node0 	number_of_resources 	16500
scalar Network300.node0 	time_period 	2
scalar Network300.node0 	number_of_messages 	2
scalar Network300.node0 	discovery_latency 	1680
scalar Network300.node0 	number_of_desired_resources 	20
scalar Network300.node0 	query_homogenity_rate 	33.333333333333
scalar Network300.node0 	qrecord_time 	9371.992364111
scalar Network300.node0 	discovery_resolution_rate 	33.333333333333
scalar Network300.node0 	rate_of_requesters 	1
scalar Network300.node0 	number_of_resources 	16500
scalar Network300.node0 	time_period 	3
scalar Network300.node0 	number_of_messages 	25
scalar Network300.node0 	discovery_latency 	1668
scalar Network300.node0 	number_of_desired_resources 	20
scalar Network300.node0 	query_homogenity_rate 	33.333333333333
scalar Network300.node0 	qrecord_time 	9431.632212403
scalar Network300.node0 	discovery_resolution_rate 	33.333333333333
scalar Network300.node100 	rate_of_requesters 	1
scalar Network300.node100 	number_of_resources 	16500
scalar Network300.node100 	time_period 	2
scalar Network300.node100 	number_of_messages 	19
scalar Network300.node100 	discovery_latency 	1452
scalar Network300.node100 	number_of_desired_resources 	20
scalar Network300.node100 	query_homogenity_rate 	33.333333333333
scalar Network300.node100 	qrecord_time 	9568.283283441
scalar Network300.node100 	discovery_resolution_rate 	66.666666666667
scalar Network300.node60 	rate_of_requesters 	1
scalar Network300.node60 	number_of_resources 	16500
scalar Network300.node60 	time_period 	3
scalar Network300.node60 	number_of_messages 	17
scalar Network300.node60 	discovery_latency 	1488
scalar Network300.node60 	number_of_desired_resources 	20
scalar Network300.node60 	query_homogenity_rate 	33.333333333333
scalar Network300.node60 	qrecord_time 	10067.975935877
scalar Network300.node60 	discovery_resolution_rate 	66.666666666667
scalar Network300.node180 	rate_of_requesters 	1
scalar Network300.node180 	number_of_resources 	16500
scalar Network300.node180 	time_period 	6
scalar Network300.node180 	number_of_messages 	26
scalar Network300.node180 	discovery_latency 	1488
scalar Network300.node180 	number_of_desired_resources 	20
scalar Network300.node180 	query_homogenity_rate 	33.333333333333
scalar Network300.node180 	qrecord_time 	10232.16869299
scalar Network300.node180 	discovery_resolution_rate 	66.666666666667
scalar Network300.node30 	rate_of_requesters 	1
scalar Network300.node30 	number_of_resources 	16500
scalar Network300.node30 	time_period 	3
scalar Network300.node30 	number_of_messages 	40
scalar Network300.node30 	discovery_latency 	420
scalar Network300.node30 	number_of_desired_resources 	20
scalar Network300.node30 	query_homogenity_rate 	33.333333333333
scalar Network300.node30 	qrecord_time 	10412.632967474
scalar Network300.node30 	discovery_resolution_rate 	100
scalar Network300.node70 	rate_of_requesters 	1
scalar Network300.node70 	number_of_resources 	16500
scalar Network300.node70 	time_period 	2
scalar Network300.node70 	number_of_messages 	5
scalar Network300.node70 	discovery_latency 	1560
scalar Network300.node70 	number_of_desired_resources 	20
scalar Network300.node70 	query_homogenity_rate 	33.333333333333
scalar Network300.node70 	qrecord_time 	10603.347611991
scalar Network300.node70 	discovery_resolution_rate 	33.333333333333
scalar Network300.node230 	rate_of_requesters 	1
scalar Network300.node230 	number_of_resources 	16500
scalar Network300.node230 	time_period 	2
scalar Network300.node230 	number_of_messages 	4
scalar Network300.node230 	discovery_latency 	1584
scalar Network300.node230 	number_of_desired_resources 	20
scalar Network300.node230 	query_homogenity_rate 	33.333333333333
scalar Network300.node230 	qrecord_time 	10801.659012215
scalar Network300.node230 	discovery_resolution_rate 	33.333333333333
scalar Network300.node180 	rate_of_requesters 	1
scalar Network300.node180 	number_of_resources 	16500
scalar Network300.node180 	time_period 	7
scalar Network300.node180 	number_of_messages 	28
scalar Network300.node180 	discovery_latency 	216
scalar Network300.node180 	number_of_desired_resources 	20
scalar Network300.node180 	query_homogenity_rate 	33.333333333333
scalar Network300.node180 	qrecord_time 	10843.652132718
scalar Network300.node180 	discovery_resolution_rate 	100
scalar Network300.node70 	rate_of_requesters 	1
scalar Network300.node70 	number_of_resources 	16500
scalar Network300.node70 	time_period 	3
scalar Network300.node70 	number_of_messages 	5
scalar Network300.node70 	discovery_latency 	1572
scalar Network300.node70 	number_of_desired_resources 	20
scalar Network300.node70 	query_homogenity_rate 	33.333333333333
scalar Network300.node70 	qrecord_time 	10879.998788496
scalar Network300.node70 	discovery_resolution_rate 	33.333333333333
scalar Network300.node40 	rate_of_requesters 	1
scalar Network300.node40 	number_of_resources 	16500
scalar Network300.node40 	time_period 	3
scalar Network300.node40 	number_of_messages 	6
scalar Network300.node40 	discovery_latency 	1584
scalar Network300.node40 	number_of_desired_resources 	20
scalar Network300.node40 	query_homogenity_rate 	33.333333333333
scalar Network300.node40 	qrecord_time 	10915.232552876
scalar Network300.node40 	discovery_resolution_rate 	33.333333333333
scalar Network300.node220 	rate_of_requesters 	1
scalar Network300.node220 	number_of_resources 	16500
scalar Network300.node220 	time_period 	2
scalar Network300.node220 	number_of_messages 	6
scalar Network300.node220 	discovery_latency 	1572
scalar Network300.node220 	number_of_desired_resources 	20
scalar Network300.node220 	query_homogenity_rate 	33.333333333333
scalar Network300.node220 	qrecord_time 	10938.690002792
scalar Network300.node220 	discovery_resolution_rate 	33.333333333333
scalar Network300.node20 	rate_of_requesters 	1
scalar Network300.node20 	number_of_resources 	16500
scalar Network300.node20 	time_period 	2
scalar Network300.node20 	number_of_messages 	2
scalar Network300.node20 	discovery_latency 	1584
scalar Network300.node20 	number_of_desired_resources 	20
scalar Network300.node20 	query_homogenity_rate 	33.333333333333
scalar Network300.node20 	qrecord_time 	11016.690925052
scalar Network300.node20 	discovery_resolution_rate 	33.333333333333
scalar Network300.node130 	rate_of_requesters 	1
scalar Network300.node130 	number_of_resources 	16500
scalar Network300.node130 	time_period 	2
scalar Network300.node130 	number_of_messages 	11
scalar Network300.node130 	discovery_latency 	1584
scalar Network300.node130 	number_of_desired_resources 	20
scalar Network300.node130 	query_homogenity_rate 	33.333333333333
scalar Network300.node130 	qrecord_time 	11246.622771309
scalar Network300.node130 	discovery_resolution_rate 	33.333333333333
scalar Network300.node60 	rate_of_requesters 	1
scalar Network300.node60 	number_of_resources 	16500
scalar Network300.node60 	time_period 	4
scalar Network300.node60 	number_of_messages 	15
scalar Network300.node60 	discovery_latency 	1416
scalar Network300.node60 	number_of_desired_resources 	20
scalar Network300.node60 	query_homogenity_rate 	33.333333333333
scalar Network300.node60 	qrecord_time 	11251.375776193
scalar Network300.node60 	discovery_resolution_rate 	66.666666666667
scalar Network300.node150 	rate_of_requesters 	1
scalar Network300.node150 	number_of_resources 	16500
scalar Network300.node150 	time_period 	4
scalar Network300.node150 	number_of_messages 	4
scalar Network300.node150 	discovery_latency 	1584
scalar Network300.node150 	number_of_desired_resources 	20
scalar Network300.node150 	query_homogenity_rate 	33.333333333333
scalar Network300.node150 	qrecord_time 	11822.586685
scalar Network300.node150 	discovery_resolution_rate 	33.333333333333
scalar Network300.node40 	rate_of_requesters 	1
scalar Network300.node40 	number_of_resources 	16500
scalar Network300.node40 	time_period 	4
scalar Network300.node40 	number_of_messages 	11
scalar Network300.node40 	discovery_latency 	1548
scalar Network300.node40 	number_of_desired_resources 	20
scalar Network300.node40 	query_homogenity_rate 	33.333333333333
scalar Network300.node40 	qrecord_time 	11834.478783768
scalar Network300.node40 	discovery_resolution_rate 	33.333333333333
scalar Network300.node60 	rate_of_requesters 	1
scalar Network300.node60 	number_of_resources 	16500
scalar Network300.node60 	time_period 	5
scalar Network300.node60 	number_of_messages 	6
scalar Network300.node60 	discovery_latency 	1548
scalar Network300.node60 	number_of_desired_resources 	20
scalar Network300.node60 	query_homogenity_rate 	33.333333333333
scalar Network300.node60 	qrecord_time 	12121.937719012
scalar Network300.node60 	discovery_resolution_rate 	33.333333333333
scalar Network300.node140 	rate_of_requesters 	1
scalar Network300.node140 	number_of_resources 	16500
scalar Network300.node140 	time_period 	2
scalar Network300.node140 	number_of_messages 	40
scalar Network300.node140 	discovery_latency 	276
scalar Network300.node140 	number_of_desired_resources 	20
scalar Network300.node140 	query_homogenity_rate 	33.333333333333
scalar Network300.node140 	qrecord_time 	12181.464900317
scalar Network300.node140 	discovery_resolution_rate 	100
scalar Network300.node210 	rate_of_requesters 	1
scalar Network300.node210 	number_of_resources 	16500
scalar Network300.node210 	time_period 	2
scalar Network300.node210 	number_of_messages 	13
scalar Network300.node210 	discovery_latency 	1584
scalar Network300.node210 	number_of_desired_resources 	20
scalar Network300.node210 	query_homogenity_rate 	33.333333333333
scalar Network300.node210 	qrecord_time 	12189.944840489
scalar Network300.node210 	discovery_resolution_rate 	66.666666666667
scalar Network300.node80 	rate_of_requesters 	1
scalar Network300.node80 	number_of_resources 	16500
scalar Network300.node80 	time_period 	2
scalar Network300.node80 	number_of_messages 	11
scalar Network300.node80 	discovery_latency 	1512
scalar Network300.node80 	number_of_desired_resources 	20
scalar Network300.node80 	query_homogenity_rate 	33.333333333333
scalar Network300.node80 	qrecord_time 	12285.812434498
scalar Network300.node80 	discovery_resolution_rate 	66.666666666667
scalar Network300.node250 	rate_of_requesters 	1
scalar Network300.node250 	number_of_resources 	16500
scalar Network300.node250 	time_period 	2
scalar Network300.node250 	number_of_messages 	46
scalar Network300.node250 	discovery_latency 	1500
scalar Network300.node250 	number_of_desired_resources 	20
scalar Network300.node250 	query_homogenity_rate 	33.333333333333
scalar Network300.node250 	qrecord_time 	12438.881671595
scalar Network300.node250 	discovery_resolution_rate 	66.666666666667
scalar Network300.node250 	rate_of_requesters 	1
scalar Network300.node250 	number_of_resources 	16500
scalar Network300.node250 	time_period 	3
scalar Network300.node250 	number_of_messages 	9
scalar Network300.node250 	discovery_latency 	1500
scalar Network300.node250 	number_of_desired_resources 	20
scalar Network300.node250 	query_homogenity_rate 	33.333333333333
scalar Network300.node250 	qrecord_time 	12512.657542583
scalar Network300.node250 	discovery_resolution_rate 	33.333333333333
scalar Network300.node90 	rate_of_requesters 	1
scalar Network300.node90 	number_of_resources 	16500
scalar Network300.node90 	time_period 	3
scalar Network300.node90 	number_of_messages 	17
scalar Network300.node90 	discovery_latency 	1548
scalar Network300.node90 	number_of_desired_resources 	20
scalar Network300.node90 	query_homogenity_rate 	33.333333333333
scalar Network300.node90 	qrecord_time 	12800.638230853
scalar Network300.node90 	discovery_resolution_rate 	66.666666666667
scalar Network300.node30 	rate_of_requesters 	1
scalar Network300.node30 	number_of_resources 	16500
scalar Network300.node30 	time_period 	4
scalar Network300.node30 	number_of_messages 	8
scalar Network300.node30 	discovery_latency 	1608
scalar Network300.node30 	number_of_desired_resources 	20
scalar Network300.node30 	query_homogenity_rate 	33.333333333333
scalar Network300.node30 	qrecord_time 	13070.014960259
scalar Network300.node30 	discovery_resolution_rate 	33.333333333333
scalar Network300.node150 	rate_of_requesters 	1
scalar Network300.node150 	number_of_resources 	16500
scalar Network300.node150 	time_period 	5
scalar Network300.node150 	number_of_messages 	13
scalar Network300.node150 	discovery_latency 	1452
scalar Network300.node150 	number_of_desired_resources 	20
scalar Network300.node150 	query_homogenity_rate 	33.333333333333
scalar Network300.node150 	qrecord_time 	13092.891644649
scalar Network300.node150 	discovery_resolution_rate 	66.666666666667
scalar Network300.node220 	rate_of_requesters 	1
scalar Network300.node220 	number_of_resources 	16500
scalar Network300.node220 	time_period 	3
scalar Network300.node220 	number_of_messages 	8
scalar Network300.node220 	discovery_latency 	1608
scalar Network300.node220 	number_of_desired_resources 	20
scalar Network300.node220 	query_homogenity_rate 	33.333333333333
scalar Network300.node220 	qrecord_time 	13181.159681006
scalar Network300.node220 	discovery_resolution_rate 	33.333333333333
scalar Network300.node240 	rate_of_requesters 	1
scalar Network300.node240 	number_of_resources 	16500
scalar Network300.node240 	time_period 	4
scalar Network300.node240 	number_of_messages 	10
scalar Network300.node240 	discovery_latency 	1656
scalar Network300.node240 	number_of_desired_resources 	20
scalar Network300.node240 	query_homogenity_rate 	33.333333333333
scalar Network300.node240 	qrecord_time 	13189.091687399
scalar Network300.node240 	discovery_resolution_rate 	33.333333333333
scalar Network300.node220 	rate_of_requesters 	1
scalar Network300.node220 	number_of_resources 	16500
scalar Network300.node220 	time_period 	4
scalar Network300.node220 	number_of_messages 	15
scalar Network300.node220 	discovery_latency 	1428
scalar Network300.node220 	number_of_desired_resources 	20
scalar Network300.node220 	query_homogenity_rate 	33.333333333333
scalar Network300.node220 	qrecord_time 	13477.479670115
scalar Network300.node220 	discovery_resolution_rate 	66.666666666667
scalar Network300.node190 	rate_of_requesters 	1
scalar Network300.node190 	number_of_resources 	16500
scalar Network300.node190 	time_period 	2
scalar Network300.node190 	number_of_messages 	8
scalar Network300.node190 	discovery_latency 	1464
scalar Network300.node190 	number_of_desired_resources 	20
scalar Network300.node190 	query_homogenity_rate 	33.333333333333
scalar Network300.node190 	qrecord_time 	13514.916689786
scalar Network300.node190 	discovery_resolution_rate 	66.666666666667
scalar Network300.node270 	rate_of_requesters 	1
scalar Network300.node270 	number_of_resources 	16500
scalar Network300.node270 	time_period 	5
scalar Network300.node270 	number_of_messages 	10
scalar Network300.node270 	discovery_latency 	1500
scalar Network300.node270 	number_of_desired_resources 	20
scalar Network300.node270 	query_homogenity_rate 	33.333333333333
scalar Network300.node270 	qrecord_time 	13585.003759377
scalar Network300.node270 	discovery_resolution_rate 	66.666666666667
scalar Network300.node140 	rate_of_requesters 	1
scalar Network300.node140 	number_of_resources 	16500
scalar Network300.node140 	time_period 	3
scalar Network300.node140 	number_of_messages 	43
scalar Network300.node140 	discovery_latency 	1536
scalar Network300.node140 	number_of_desired_resources 	20
scalar Network300.node140 	query_homogenity_rate 	33.333333333333
scalar Network300.node140 	qrecord_time 	13644.218593931
scalar Network300.node140 	discovery_resolution_rate 	66.666666666667
scalar Network300.node270 	rate_of_requesters 	1
scalar Network300.node270 	number_of_resources 	16500
scalar Network300.node270 	time_period 	6
scalar Network300.node270 	number_of_messages 	5
scalar Network300.node270 	discovery_latency 	1596
scalar Network300.node270 	number_of_desired_resources 	20
scalar Network300.node270 	query_homogenity_rate 	33.333333333333
scalar Network300.node270 	qrecord_time 	13953.920594798
scalar Network300.node270 	discovery_resolution_rate 	33.333333333333
scalar Network300.node280 	rate_of_requesters 	1
scalar Network300.node280 	number_of_resources 	16500
scalar Network300.node280 	time_period 	4
scalar Network300.node280 	number_of_messages 	11
scalar Network300.node280 	discovery_latency 	1668
scalar Network300.node280 	number_of_desired_resources 	20
scalar Network300.node280 	query_homogenity_rate 	33.333333333333
scalar Network300.node280 	qrecord_time 	14027.014001891
scalar Network300.node280 	discovery_resolution_rate 	33.333333333333
scalar Network300.node100 	rate_of_requesters 	1
scalar Network300.node100 	number_of_resources 	16500
scalar Network300.node100 	time_period 	4
scalar Network300.node100 	number_of_messages 	28
scalar Network300.node100 	discovery_latency 	204
scalar Network300.node100 	number_of_desired_resources 	20
scalar Network300.node100 	query_homogenity_rate 	33.333333333333
scalar Network300.node100 	qrecord_time 	14097.033984141
scalar Network300.node100 	discovery_resolution_rate 	100
scalar Network300.node70 	rate_of_requesters 	1
scalar Network300.node70 	number_of_resources 	16500
scalar Network300.node70 	time_period 	4
scalar Network300.node70 	number_of_messages 	13
scalar Network300.node70 	discovery_latency 	1680
scalar Network300.node70 	number_of_desired_resources 	20
scalar Network300.node70 	query_homogenity_rate 	33.333333333333
scalar Network300.node70 	qrecord_time 	14200.225082192
scalar Network300.node70 	discovery_resolution_rate 	66.666666666667
scalar Network300.node260 	rate_of_requesters 	1
scalar Network300.node260 	number_of_resources 	16500
scalar Network300.node260 	time_period 	2
scalar Network300.node260 	number_of_messages 	4
scalar Network300.node260 	discovery_latency 	1632
scalar Network300.node260 	number_of_desired_resources 	20
scalar Network300.node260 	query_homogenity_rate 	33.333333333333
scalar Network300.node260 	qrecord_time 	14236.067862848
scalar Network300.node260 	discovery_resolution_rate 	33.333333333333
scalar Network300.node40 	rate_of_requesters 	1
scalar Network300.node40 	number_of_resources 	16500
scalar Network300.node40 	time_period 	5
scalar Network300.node40 	number_of_messages 	12
scalar Network300.node40 	discovery_latency 	1464
scalar Network300.node40 	number_of_desired_resources 	20
scalar Network300.node40 	query_homogenity_rate 	33.333333333333
scalar Network300.node40 	qrecord_time 	14789.710059236
scalar Network300.node40 	discovery_resolution_rate 	66.666666666667
scalar Network300.node30 	rate_of_requesters 	1
scalar Network300.node30 	number_of_resources 	16500
scalar Network300.node30 	time_period 	5
scalar Network300.node30 	number_of_messages 	8
scalar Network300.node30 	discovery_latency 	1692
scalar Network300.node30 	number_of_desired_resources 	20
scalar Network300.node30 	query_homogenity_rate 	33.333333333333
scalar Network300.node30 	qrecord_time 	14919.301001109
scalar Network300.node30 	discovery_resolution_rate 	33.333333333333
scalar Network300.node0 	rate_of_requesters 	1
scalar Network300.node0 	number_of_resources 	16500
scalar Network300.node0 	time_period 	4
scalar Network300.node0 	number_of_messages 	2
scalar Network300.node0 	discovery_latency 	1620
scalar Network300.node0 	number_of_desired_resources 	20
scalar Network300.node0 	query_homogenity_rate 	33.333333333333
scalar Network300.node0 	qrecord_time 	14921.853963812
scalar Network300.node0 	discovery_resolution_rate 	33.333333333333
scalar Network300.node50 	rate_of_requesters 	1
scalar Network300.node50 	number_of_resources 	16500
scalar Network300.node50 	time_period 	2
scalar Network300.node50 	number_of_messages 	4
scalar Network300.node50 	discovery_latency 	1704
scalar Network300.node50 	number_of_desired_resources 	20
scalar Network300.node50 	query_homogenity_rate 	33.333333333333
scalar Network300.node50 	qrecord_time 	14941.492753183
scalar Network300.node50 	discovery_resolution_rate 	33.333333333333
scalar Network300.node100 	rate_of_requesters 	1
scalar Network300.node100 	number_of_resources 	16500
scalar Network300.node100 	time_period 	3
scalar Network300.node100 	number_of_messages 	32
scalar Network300.node100 	discovery_latency 	1524
scalar Network300.node100 	number_of_desired_resources 	20
scalar Network300.node100 	query_homogenity_rate 	33.333333333333
scalar Network300.node100 	qrecord_time 	15091.999261573
scalar Network300.node100 	discovery_resolution_rate 	66.666666666667
scalar Network300.node160 	rate_of_requesters 	1
scalar Network300.node160 	number_of_resources 	16500
scalar Network300.node160 	time_period 	3
scalar Network300.node160 	number_of_messages 	10
scalar Network300.node160 	discovery_latency 	1584
scalar Network300.node160 	number_of_desired_resources 	20
scalar Network300.node160 	query_homogenity_rate 	33.333333333333
scalar Network300.node160 	qrecord_time 	15148.052566446
scalar Network300.node160 	discovery_resolution_rate 	33.333333333333
scalar Network300.node150 	rate_of_requesters 	1
scalar Network300.node150 	number_of_resources 	16500
scalar Network300.node150 	time_period 	6
scalar Network300.node150 	number_of_messages 	6
scalar Network300.node150 	discovery_latency 	1632
scalar Network300.node150 	number_of_desired_resources 	20
scalar Network300.node150 	query_homogenity_rate 	33.333333333333
scalar Network300.node150 	qrecord_time 	15241.22356914
scalar Network300.node150 	discovery_resolution_rate 	33.333333333333
scalar Network300.node30 	rate_of_requesters 	1
scalar Network300.node30 	number_of_resources 	16500
scalar Network300.node30 	time_period 	6
scalar Network300.node30 	number_of_messages 	23
scalar Network300.node30 	discovery_latency 	1536
scalar Network300.node30 	number_of_desired_resources 	20
scalar Network300.node30 	query_homogenity_rate 	33.333333333333
scalar Network300.node30 	qrecord_time 	15299.697634289
scalar Network300.node30 	discovery_resolution_rate 	66.666666666667
scalar Network300.node180 	rate_of_requesters 	1
scalar Network300.node180 	number_of_resources 	16500
scalar Network300.node180 	time_period 	8
scalar Network300.node180 	number_of_messages 	13
scalar Network300.node180 	discovery_latency 	1524
scalar Network300.node180 	number_of_desired_resources 	20
scalar Network300.node180 	query_homogenity_rate 	33.333333333333
scalar Network300.node180 	qrecord_time 	15548.089086178
scalar Network300.node180 	discovery_resolution_rate 	66.666666666667
scalar Network300.node20 	rate_of_requesters 	1
scalar Network300.node20 	number_of_resources 	16500
scalar Network300.node20 	time_period 	3
scalar Network300.node20 	number_of_messages 	17
scalar Network300.node20 	discovery_latency 	1476
scalar Network300.node20 	number_of_desired_resources 	20
scalar Network300.node20 	query_homogenity_rate 	33.333333333333
scalar Network300.node20 	qrecord_time 	15609.547669049
scalar Network300.node20 	discovery_resolution_rate 	66.666666666667
scalar Network300.node10 	rate_of_requesters 	1
scalar Network300.node10 	number_of_resources 	16500
scalar Network300.node10 	time_period 	3
scalar Network300.node10 	number_of_messages 	29
scalar Network300.node10 	discovery_latency 	1524
scalar Network300.node10 	number_of_desired_resources 	20
scalar Network300.node10 	query_homogenity_rate 	33.333333333333
scalar Network300.node10 	qrecord_time 	15996.587076087
scalar Network300.node10 	discovery_resolution_rate 	66.666666666667
scalar Network300.node140 	rate_of_requesters 	1
scalar Network300.node140 	number_of_resources 	16500
scalar Network300.node140 	time_period 	5
scalar Network300.node140 	number_of_messages 	34
scalar Network300.node140 	discovery_latency 	216
scalar Network300.node140 	number_of_desired_resources 	20
scalar Network300.node140 	query_homogenity_rate 	33.333333333333
scalar Network300.node140 	qrecord_time 	16078.735118109
scalar Network300.node140 	discovery_resolution_rate 	100
scalar Network300.node140 	rate_of_requesters 	1
scalar Network300.node140 	number_of_resources 	16500
scalar Network300.node140 	time_period 	4
scalar Network300.node140 	number_of_messages 	20
scalar Network300.node140 	discovery_latency 	1548
scalar Network300.node140 	number_of_desired_resources 	20
scalar Network300.node140 	query_homogenity_rate 	33.333333333333
scalar Network300.node140 	qrecord_time 	16121.368189971
scalar Network300.node140 	discovery_resolution_rate 	33.333333333333
scalar Network300.node20 	rate_of_requesters 	1
scalar Network300.node20 	number_of_resources 	16500
scalar Network300.node20 	time_period 	4
scalar Network300.node20 	number_of_messages 	4
scalar Network300.node20 	discovery_latency 	1584
scalar Network300.node20 	number_of_desired_resources 	20
scalar Network300.node20 	query_homogenity_rate 	33.333333333333
scalar Network300.node20 	qrecord_time 	16268.601887948
scalar Network300.node20 	discovery_resolution_rate 	33.333333333333
scalar Network300.node220 	rate_of_requesters 	1
scalar Network300.node220 	number_of_resources 	16500
scalar Network300.node220 	time_period 	5
scalar Network300.node220 	number_of_messages 	5
scalar Network300.node220 	discovery_latency 	1620
scalar Network300.node220 	number_of_desired_resources 	20
scalar Network300.node220 	query_homogenity_rate 	33.333333333333
scalar Network300.node220 	qrecord_time 	16307.396676213
scalar Network300.node220 	discovery_resolution_rate 	33.333333333333
scalar Network300.node290 	rate_of_requesters 	1
scalar Network300.node290 	number_of_resources 	16500
scalar Network300.node290 	time_period 	4
scalar Network300.node290 	number_of_messages 	17
scalar Network300.node290 	discovery_latency 	1548
scalar Network300.node290 	number_of_desired_resources 	20
scalar Network300.node290 	query_homogenity_rate 	33.333333333333
scalar Network300.node290 	qrecord_time 	16357.835134913
scalar Network300.node290 	discovery_resolution_rate 	33.333333333333
scalar Network300.node280 	rate_of_requesters 	1
scalar Network300.node280 	number_of_resources 	16500
scalar Network300.node280 	time_period 	5
scalar Network300.node280 	number_of_messages 	7
scalar Network300.node280 	discovery_latency 	1620
scalar Network300.node280 	number_of_desired_resources 	20
scalar Network300.node280 	query_homogenity_rate 	33.333333333333
scalar Network300.node280 	qrecord_time 	16357.925320048
scalar Network300.node280 	discovery_resolution_rate 	33.333333333333
scalar Network300.node270 	rate_of_requesters 	1
scalar Network300.node270 	number_of_resources 	16500
scalar Network300.node270 	time_period 	7
scalar Network300.node270 	number_of_messages 	11
scalar Network300.node270 	discovery_latency 	1620
scalar Network300.node270 	number_of_desired_resources 	20
scalar Network300.node270 	query_homogenity_rate 	33.333333333333
scalar Network300.node270 	qrecord_time 	16384.137757676
scalar Network300.node270 	discovery_resolution_rate 	33.333333333333
scalar Network300.node90 	rate_of_requesters 	1
scalar Network300.node90 	number_of_resources 	16500
scalar Network300.node90 	time_period 	4
scalar Network300.node90 	number_of_messages 	6
scalar Network300.node90 	discovery_latency 	1596
scalar Network300.node90 	number_of_desired_resources 	20
scalar Network300.node90 	query_homogenity_rate 	33.333333333333
scalar Network300.node90 	qrecord_time 	16406.650923269
scalar Network300.node90 	discovery_resolution_rate 	33.333333333333
scalar Network300.node100 	rate_of_requesters 	1
scalar Network300.node100 	number_of_resources 	16500
scalar Network300.node100 	time_period 	5
scalar Network300.node100 	number_of_messages 	13
scalar Network300.node100 	discovery_latency 	1584
scalar Network300.node100 	number_of_desired_resources 	20
scalar Network300.node100 	query_homogenity_rate 	33.333333333333
scalar Network300.node100 	qrecord_time 	16410.943453242
scalar Network300.node100 	discovery_resolution_rate 	33.333333333333
scalar Network300.node290 	rate_of_requesters 	1
scalar Network300.node290 	number_of_resources 	16500
scalar Network300.node290 	time_period 	5
scalar Network300.node290 	number_of_messages 	17
scalar Network300.node290 	discovery_latency 	1584
scalar Network300.node290 	number_of_desired_resources 	20
scalar Network300.node290 	query_homogenity_rate 	33.333333333333
scalar Network300.node290 	qrecord_time 	16540.607264778
scalar Network300.node290 	discovery_resolution_rate 	33.333333333333
scalar Network300.node280 	rate_of_requesters 	1
scalar Network300.node280 	number_of_resources 	16500
scalar Network300.node280 	time_period 	6
scalar Network300.node280 	number_of_messages 	7
scalar Network300.node280 	discovery_latency 	1560
scalar Network300.node280 	number_of_desired_resources 	20
scalar Network300.node280 	query_homogenity_rate 	33.333333333333
scalar Network300.node280 	qrecord_time 	16661.689966359
scalar Network300.node280 	discovery_resolution_rate 	33.333333333333
scalar Network300.node210 	rate_of_requesters 	1
scalar Network300.node210 	number_of_resources 	16500
scalar Network300.node210 	time_period 	3
scalar Network300.node210 	number_of_messages 	18
scalar Network300.node210 	discovery_latency 	156
scalar Network300.node210 	number_of_desired_resources 	20
scalar Network300.node210 	query_homogenity_rate 	33.333333333333
scalar Network300.node210 	qrecord_time 	16727.662393844
scalar Network300.node210 	discovery_resolution_rate 	100
scalar Network300.node70 	rate_of_requesters 	1
scalar Network300.node70 	number_of_resources 	16500
scalar Network300.node70 	time_period 	5
scalar Network300.node70 	number_of_messages 	5
scalar Network300.node70 	discovery_latency 	1560
scalar Network300.node70 	number_of_desired_resources 	20
scalar Network300.node70 	query_homogenity_rate 	33.333333333333
scalar Network300.node70 	qrecord_time 	16823.642942256
scalar Network300.node70 	discovery_resolution_rate 	33.333333333333
scalar Network300.node30 	rate_of_requesters 	1
scalar Network300.node30 	number_of_resources 	16500
scalar Network300.node30 	time_period 	10
scalar Network300.node30 	number_of_messages 	29
scalar Network300.node30 	discovery_latency 	276
scalar Network300.node30 	number_of_desired_resources 	20
scalar Network300.node30 	query_homogenity_rate 	33.333333333333
scalar Network300.node30 	qrecord_time 	16856.140362042
scalar Network300.node30 	discovery_resolution_rate 	100
scalar Network300.node110 	rate_of_requesters 	1
scalar Network300.node110 	number_of_resources 	16500
scalar Network300.node110 	time_period 	2
scalar Network300.node110 	number_of_messages 	23
scalar Network300.node110 	discovery_latency 	1548
scalar Network300.node110 	number_of_desired_resources 	20
scalar Network300.node110 	query_homogenity_rate 	33.333333333333
scalar Network300.node110 	qrecord_time 	16858.895547205
scalar Network300.node110 	discovery_resolution_rate 	66.666666666667
scalar Network300.node30 	rate_of_requesters 	1
scalar Network300.node30 	number_of_resources 	16500
scalar Network300.node30 	time_period 	7
scalar Network300.node30 	number_of_messages 	5
scalar Network300.node30 	discovery_latency 	1596
scalar Network300.node30 	number_of_desired_resources 	20
scalar Network300.node30 	query_homogenity_rate 	33.333333333333
scalar Network300.node30 	qrecord_time 	16897.223989732
scalar Network300.node30 	discovery_resolution_rate 	33.333333333333
scalar Network300.node30 	rate_of_requesters 	1
scalar Network300.node30 	number_of_resources 	16500
scalar Network300.node30 	time_period 	8
scalar Network300.node30 	number_of_messages 	17
scalar Network300.node30 	discovery_latency 	1620
scalar Network300.node30 	number_of_desired_resources 	20
scalar Network300.node30 	query_homogenity_rate 	33.333333333333
scalar Network300.node30 	qrecord_time 	17157.439145074
scalar Network300.node30 	discovery_resolution_rate 	66.666666666667
scalar Network300.node120 	rate_of_requesters 	1
scalar Network300.node120 	number_of_resources 	16500
scalar Network300.node120 	time_period 	3
scalar Network300.node120 	number_of_messages 	7
scalar Network300.node120 	discovery_latency 	1596
scalar Network300.node120 	number_of_desired_resources 	20
scalar Network300.node120 	query_homogenity_rate 	33.333333333333
scalar Network300.node120 	qrecord_time 	17178.894815822
scalar Network300.node120 	discovery_resolution_rate 	33.333333333333
scalar Network300.node30 	rate_of_requesters 	1
scalar Network300.node30 	number_of_resources 	16500
scalar Network300.node30 	time_period 	9
scalar Network300.node30 	number_of_messages 	7
scalar Network300.node30 	discovery_latency 	1608
scalar Network300.node30 	number_of_desired_resources 	20
scalar Network300.node30 	query_homogenity_rate 	33.333333333333
scalar Network300.node30 	qrecord_time 	17324.18856884
scalar Network300.node30 	discovery_resolution_rate 	33.333333333333
scalar Network300.node250 	rate_of_requesters 	1
scalar Network300.node250 	number_of_resources 	16500
scalar Network300.node250 	time_period 	4
scalar Network300.node250 	number_of_messages 	22
scalar Network300.node250 	discovery_latency 	1512
scalar Network300.node250 	number_of_desired_resources 	20
scalar Network300.node250 	query_homogenity_rate 	33.333333333333
scalar Network300.node250 	qrecord_time 	17419.287204299
scalar Network300.node250 	discovery_resolution_rate 	66.666666666667
scalar Network300.node240 	rate_of_requesters 	1
scalar Network300.node240 	number_of_resources 	16500
scalar Network300.node240 	time_period 	5
scalar Network300.node240 	number_of_messages 	10
scalar Network300.node240 	discovery_latency 	1560
scalar Network300.node240 	number_of_desired_resources 	20
scalar Network300.node240 	query_homogenity_rate 	33.333333333333
scalar Network300.node240 	qrecord_time 	17470.932625212
scalar Network300.node240 	discovery_resolution_rate 	33.333333333333
scalar Network300.node250 	rate_of_requesters 	1
scalar Network300.node250 	number_of_resources 	16500
scalar Network300.node250 	time_period 	5
scalar Network300.node250 	number_of_messages 	13
scalar Network300.node250 	discovery_latency 	1572
scalar Network300.node250 	number_of_desired_resources 	20
scalar Network300.node250 	query_homogenity_rate 	33.333333333333
scalar Network300.node250 	qrecord_time 	17486.762367308
scalar Network300.node250 	discovery_resolution_rate 	33.333333333333
scalar Network300.node60 	rate_of_requesters 	1
scalar Network300.node60 	number_of_resources 	16500
scalar Network300.node60 	time_period 	6
scalar Network300.node60 	number_of_messages 	6
scalar Network300.node60 	discovery_latency 	1572
scalar Network300.node60 	number_of_desired_resources 	20
scalar Network300.node60 	query_homogenity_rate 	33.333333333333
scalar Network300.node60 	qrecord_time 	17609.627957369
scalar Network300.node60 	discovery_resolution_rate 	33.333333333333
scalar Network300.node90 	rate_of_requesters 	1
scalar Network300.node90 	number_of_resources 	16500
scalar Network300.node90 	time_period 	5
scalar Network300.node90 	number_of_messages 	6
scalar Network300.node90 	discovery_latency 	1608
scalar Network300.node90 	number_of_desired_resources 	20
scalar Network300.node90 	query_homogenity_rate 	33.333333333333
scalar Network300.node90 	qrecord_time 	17632.873789148
scalar Network300.node90 	discovery_resolution_rate 	33.333333333333
scalar Network300.node270 	rate_of_requesters 	1
scalar Network300.node270 	number_of_resources 	16500
scalar Network300.node270 	time_period 	8
scalar Network300.node270 	number_of_messages 	12
scalar Network300.node270 	discovery_latency 	1584
scalar Network300.node270 	number_of_desired_resources 	20
scalar Network300.node270 	query_homogenity_rate 	33.333333333333
scalar Network300.node270 	qrecord_time 	17736.569707809
scalar Network300.node270 	discovery_resolution_rate 	33.333333333333
scalar Network300.node40 	rate_of_requesters 	1
scalar Network300.node40 	number_of_resources 	16500
scalar Network300.node40 	time_period 	6
scalar Network300.node40 	number_of_messages 	4
scalar Network300.node40 	discovery_latency 	1596
scalar Network300.node40 	number_of_desired_resources 	20
scalar Network300.node40 	query_homogenity_rate 	33.333333333333
scalar Network300.node40 	qrecord_time 	17779.391365104
scalar Network300.node40 	discovery_resolution_rate 	33.333333333333
scalar Network300.node20 	rate_of_requesters 	1
scalar Network300.node20 	number_of_resources 	16500
scalar Network300.node20 	time_period 	5
scalar Network300.node20 	number_of_messages 	35
scalar Network300.node20 	discovery_latency 	1500
scalar Network300.node20 	number_of_desired_resources 	20
scalar Network300.node20 	query_homogenity_rate 	33.333333333333
scalar Network300.node20 	qrecord_time 	18298.890885395
scalar Network300.node20 	discovery_resolution_rate 	66.666666666667
scalar Network300.node290 	rate_of_requesters 	1
scalar Network300.node290 	number_of_resources 	16500
scalar Network300.node290 	time_period 	6
scalar Network300.node290 	number_of_messages 	10
scalar Network300.node290 	discovery_latency 	1692
scalar Network300.node290 	number_of_desired_resources 	20
scalar Network300.node290 	query_homogenity_rate 	33.333333333333
scalar Network300.node290 	qrecord_time 	18909.823239144
scalar Network300.node290 	discovery_resolution_rate 	33.333333333333
scalar Network300.node190 	rate_of_requesters 	1
scalar Network300.node190 	number_of_resources 	16500
scalar Network300.node190 	time_period 	4
scalar Network300.node190 	number_of_messages 	29
scalar Network300.node190 	discovery_latency 	264
scalar Network300.node190 	number_of_desired_resources 	20
scalar Network300.node190 	query_homogenity_rate 	33.333333333333
scalar Network300.node190 	qrecord_time 	18978.865718423
scalar Network300.node190 	discovery_resolution_rate 	100
scalar Network300.node150 	rate_of_requesters 	1
scalar Network300.node150 	number_of_resources 	16500
scalar Network300.node150 	time_period 	7
scalar Network300.node150 	number_of_messages 	4
scalar Network300.node150 	discovery_latency 	1668
scalar Network300.node150 	number_of_desired_resources 	20
scalar Network300.node150 	query_homogenity_rate 	33.333333333333
scalar Network300.node150 	qrecord_time 	19238.996228546
scalar Network300.node150 	discovery_resolution_rate 	33.333333333333
scalar Network300.node190 	rate_of_requesters 	1
scalar Network300.node190 	number_of_resources 	16500
scalar Network300.node190 	time_period 	3
scalar Network300.node190 	number_of_messages 	13
scalar Network300.node190 	discovery_latency 	1356
scalar Network300.node190 	number_of_desired_resources 	20
scalar Network300.node190 	query_homogenity_rate 	33.333333333333
scalar Network300.node190 	qrecord_time 	19422.55619986
scalar Network300.node190 	discovery_resolution_rate 	66.666666666667
scalar Network300.node250 	rate_of_requesters 	1
scalar Network300.node250 	number_of_resources 	16500
scalar Network300.node250 	time_period 	6
scalar Network300.node250 	number_of_messages 	18
scalar Network300.node250 	discovery_latency 	1644
scalar Network300.node250 	number_of_desired_resources 	20
scalar Network300.node250 	query_homogenity_rate 	33.333333333333
scalar Network300.node250 	qrecord_time 	19467.320425214
scalar Network300.node250 	discovery_resolution_rate 	66.666666666667
scalar Network300.node160 	rate_of_requesters 	1
scalar Network300.node160 	number_of_resources 	16500
scalar Network300.node160 	time_period 	4
scalar Network300.node160 	number_of_messages 	10
scalar Network300.node160 	discovery_latency 	1656
scalar Network300.node160 	number_of_desired_resources 	20
scalar Network300.node160 	query_homogenity_rate 	33.333333333333
scalar Network300.node160 	qrecord_time 	19757.99438332
scalar Network300.node160 	discovery_resolution_rate 	33.333333333333
scalar Network300.node290 	rate_of_requesters 	1
scalar Network300.node290 	number_of_resources 	16500
scalar Network300.node290 	time_period 	7
scalar Network300.node290 	number_of_messages 	30
scalar Network300.node290 	discovery_latency 	228
scalar Network300.node290 	number_of_desired_resources 	20
scalar Network300.node290 	query_homogenity_rate 	33.333333333333
scalar Network300.node290 	qrecord_time 	19837.371065972
scalar Network300.node290 	discovery_resolution_rate 	100
scalar Network300.node210 	rate_of_requesters 	1
scalar Network300.node210 	number_of_resources 	16500
scalar Network300.node210 	time_period 	4
scalar Network300.node210 	number_of_messages 	5
scalar Network300.node210 	discovery_latency 	1728
scalar Network300.node210 	number_of_desired_resources 	20
scalar Network300.node210 	query_homogenity_rate 	33.333333333333
scalar Network300.node210 	qrecord_time 	19904.824655725
scalar Network300.node210 	discovery_resolution_rate 	33.333333333333
scalar Network300.node250 	rate_of_requesters 	1
scalar Network300.node250 	number_of_resources 	16500
scalar Network300.node250 	time_period 	7
scalar Network300.node250 	number_of_messages 	55
scalar Network300.node250 	discovery_latency 	816
scalar Network300.node250 	number_of_desired_resources 	20
scalar Network300.node250 	query_homogenity_rate 	33.333333333333
scalar Network300.node250 	qrecord_time 	19967.327642396
scalar Network300.node250 	discovery_resolution_rate 	100
scalar Network300.node130 	rate_of_requesters 	1
scalar Network300.node130 	number_of_resources 	16500
scalar Network300.node130 	time_period 	3
scalar Network300.node130 	number_of_messages 	20
scalar Network300.node130 	discovery_latency 	132
scalar Network300.node130 	number_of_desired_resources 	20
scalar Network300.node130 	query_homogenity_rate 	33.333333333333
scalar Network300.node130 	qrecord_time 	20210.538717643
scalar Network300.node130 	discovery_resolution_rate 	100
scalar Network300.node260 	rate_of_requesters 	1
scalar Network300.node260 	number_of_resources 	16500
scalar Network300.node260 	time_period 	3
scalar Network300.node260 	number_of_messages 	10
scalar Network300.node260 	discovery_latency 	1596
scalar Network300.node260 	number_of_desired_resources 	20
scalar Network300.node260 	query_homogenity_rate 	33.333333333333
scalar Network300.node260 	qrecord_time 	20279.50039709
scalar Network300.node260 	discovery_resolution_rate 	66.666666666667
scalar Network300.node240 	rate_of_requesters 	1
scalar Network300.node240 	number_of_resources 	16500
scalar Network300.node240 	time_period 	6
scalar Network300.node240 	number_of_messages 	7
scalar Network300.node240 	discovery_latency 	1572
scalar Network300.node240 	number_of_desired_resources 	20
scalar Network300.node240 	query_homogenity_rate 	33.333333333333
scalar Network300.node240 	qrecord_time 	20374.721503839
scalar Network300.node240 	discovery_resolution_rate 	33.333333333333
scalar Network300.node210 	rate_of_requesters 	1
scalar Network300.node210 	number_of_resources 	16500
scalar Network300.node210 	time_period 	5
scalar Network300.node210 	number_of_messages 	5
scalar Network300.node210 	discovery_latency 	1692
scalar Network300.node210 	number_of_desired_resources 	20
scalar Network300.node210 	query_homogenity_rate 	33.333333333333
scalar Network300.node210 	qrecord_time 	20630.626312634
scalar Network300.node210 	discovery_resolution_rate 	33.333333333333
scalar Network300.node270 	rate_of_requesters 	1
scalar Network300.node270 	number_of_resources 	16500
scalar Network300.node270 	time_period 	9
scalar Network300.node270 	number_of_messages 	17
scalar Network300.node270 	discovery_latency 	1512
scalar Network300.node270 	number_of_desired_resources 	20
scalar Network300.node270 	query_homogenity_rate 	33.333333333333
scalar Network300.node270 	qrecord_time 	20720.762577287
scalar Network300.node270 	discovery_resolution_rate 	66.666666666667
scalar Network300.node250 	rate_of_requesters 	1
scalar Network300.node250 	number_of_resources 	16500
scalar Network300.node250 	time_period 	8
scalar Network300.node250 	number_of_messages 	22
scalar Network300.node250 	discovery_latency 	1668
scalar Network300.node250 	number_of_desired_resources 	20
scalar Network300.node250 	query_homogenity_rate 	33.333333333333
scalar Network300.node250 	qrecord_time 	21238.044750331
scalar Network300.node250 	discovery_resolution_rate 	66.666666666667
scalar Network300.node50 	rate_of_requesters 	1
scalar Network300.node50 	number_of_resources 	16500
scalar Network300.node50 	time_period 	3
scalar Network300.node50 	number_of_messages 	31
scalar Network300.node50 	discovery_latency 	1476
scalar Network300.node50 	number_of_desired_resources 	20
scalar Network300.node50 	query_homogenity_rate 	33.333333333333
scalar Network300.node50 	qrecord_time 	21268.769223553
scalar Network300.node50 	discovery_resolution_rate 	66.666666666667
scalar Network300.node0 	rate_of_requesters 	1
scalar Network300.node0 	number_of_resources 	16500
scalar Network300.node0 	time_period 	5
scalar Network300.node0 	number_of_messages 	2
scalar Network300.node0 	discovery_latency 	1596
scalar Network300.node0 	number_of_desired_resources 	20
scalar Network300.node0 	query_homogenity_rate 	33.333333333333
scalar Network300.node0 	qrecord_time 	21268.805123907
scalar Network300.node0 	discovery_resolution_rate 	33.333333333333
scalar Network300.node120 	rate_of_requesters 	1
scalar Network300.node120 	number_of_resources 	16500
scalar Network300.node120 	time_period 	4
scalar Network300.node120 	number_of_messages 	16
scalar Network300.node120 	discovery_latency 	1500
scalar Network300.node120 	number_of_desired_resources 	20
scalar Network300.node120 	query_homogenity_rate 	33.333333333333
scalar Network300.node120 	qrecord_time 	21822.55246684
scalar Network300.node120 	discovery_resolution_rate 	66.666666666667
scalar Network300.node90 	rate_of_requesters 	1
scalar Network300.node90 	number_of_resources 	16500
scalar Network300.node90 	time_period 	6
scalar Network300.node90 	number_of_messages 	6
scalar Network300.node90 	discovery_latency 	1704
scalar Network300.node90 	number_of_desired_resources 	20
scalar Network300.node90 	query_homogenity_rate 	33.333333333333
scalar Network300.node90 	qrecord_time 	21970.419112253
scalar Network300.node90 	discovery_resolution_rate 	33.333333333333
scalar Network300.node50 	rate_of_requesters 	1
scalar Network300.node50 	number_of_resources 	16500
scalar Network300.node50 	time_period 	4
scalar Network300.node50 	number_of_messages 	11
scalar Network300.node50 	discovery_latency 	1488
scalar Network300.node50 	number_of_desired_resources 	20
scalar Network300.node50 	query_homogenity_rate 	33.333333333333
scalar Network300.node50 	qrecord_time 	22228.98840524
scalar Network300.node50 	discovery_resolution_rate 	66.666666666667
scalar Network300.node200 	rate_of_requesters 	1
scalar Network300.node200 	number_of_resources 	16500
scalar Network300.node200 	time_period 	2
scalar Network300.node200 	number_of_messages 	23
scalar Network300.node200 	discovery_latency 	180
scalar Network300.node200 	number_of_desired_resources 	20
scalar Network300.node200 	query_homogenity_rate 	33.333333333333
scalar Network300.node200 	qrecord_time 	22271.659628745
scalar Network300.node200 	discovery_resolution_rate 	100
scalar Network300.node180 	rate_of_requesters 	1
scalar Network300.node180 	number_of_resources 	16500
scalar Network300.node180 	time_period 	9
scalar Network300.node180 	number_of_messages 	5
scalar Network300.node180 	discovery_latency 	1572
scalar Network300.node180 	number_of_desired_resources 	20
scalar Network300.node180 	query_homogenity_rate 	33.333333333333
scalar Network300.node180 	qrecord_time 	22356.647941832
scalar Network300.node180 	discovery_resolution_rate 	33.333333333333
scalar Network300.node40 	rate_of_requesters 	1
scalar Network300.node40 	number_of_resources 	16500
scalar Network300.node40 	time_period 	7
scalar Network300.node40 	number_of_messages 	4
scalar Network300.node40 	discovery_latency 	1656
scalar Network300.node40 	number_of_desired_resources 	20
scalar Network300.node40 	query_homogenity_rate 	33.333333333333
scalar Network300.node40 	qrecord_time 	22555.405814137
scalar Network300.node40 	discovery_resolution_rate 	33.333333333333
scalar Network300.node250 	rate_of_requesters 	1
scalar Network300.node250 	number_of_resources 	16500
scalar Network300.node250 	time_period 	9
scalar Network300.node250 	number_of_messages 	11
scalar Network300.node250 	discovery_latency 	1620
scalar Network300.node250 	number_of_desired_resources 	20
scalar Network300.node250 	query_homogenity_rate 	33.333333333333
scalar Network300.node250 	qrecord_time 	22604.069842613
scalar Network300.node250 	discovery_resolution_rate 	33.333333333333
scalar Network300.node180 	rate_of_requesters 	1
scalar Network300.node180 	number_of_resources 	16500
scalar Network300.node180 	time_period 	10
scalar Network300.node180 	number_of_messages 	5
scalar Network300.node180 	discovery_latency 	1596
scalar Network300.node180 	number_of_desired_resources 	20
scalar Network300.node180 	query_homogenity_rate 	33.333333333333
scalar Network300.node180 	qrecord_time 	22688.9225805
scalar Network300.node180 	discovery_resolution_rate 	33.333333333333
scalar Network300.node150 	rate_of_requesters 	1
scalar Network300.node150 	number_of_resources 	16500
scalar Network300.node150 	time_period 	8
scalar Network300.node150 	number_of_messages 	14
scalar Network300.node150 	discovery_latency 	120
scalar Network300.node150 	number_of_desired_resources 	20
scalar Network300.node150 	query_homogenity_rate 	33.333333333333
scalar Network300.node150 	qrecord_time 	22719.827069416
scalar Network300.node150 	discovery_resolution_rate 	100
scalar Network300.node270 	rate_of_requesters 	1
scalar Network300.node270 	number_of_resources 	16500
scalar Network300.node270 	time_period 	10
scalar Network300.node270 	number_of_messages 	5
scalar Network300.node270 	discovery_latency 	1536
scalar Network300.node270 	number_of_desired_resources 	20
scalar Network300.node270 	query_homogenity_rate 	33.333333333333
scalar Network300.node270 	qrecord_time 	22734.266770581
scalar Network300.node270 	discovery_resolution_rate 	33.333333333333
scalar Network300.node10 	rate_of_requesters 	1
scalar Network300.node10 	number_of_resources 	16500
scalar Network300.node10 	time_period 	6
scalar Network300.node10 	number_of_messages 	33
scalar Network300.node10 	discovery_latency 	276
scalar Network300.node10 	number_of_desired_resources 	20
scalar Network300.node10 	query_homogenity_rate 	33.333333333333
scalar Network300.node10 	qrecord_time 	23012.600554917
scalar Network300.node10 	discovery_resolution_rate 	100
scalar Network300.node90 	rate_of_requesters 	1
scalar Network300.node90 	number_of_resources 	16500
scalar Network300.node90 	time_period 	7
scalar Network300.node90 	number_of_messages 	6
scalar Network300.node90 	discovery_latency 	1500
scalar Network300.node90 	number_of_desired_resources 	20
scalar Network300.node90 	query_homogenity_rate 	33.333333333333
scalar Network300.node90 	qrecord_time 	23067.182466197
scalar Network300.node90 	discovery_resolution_rate 	33.333333333333
scalar Network300.node140 	rate_of_requesters 	1
scalar Network300.node140 	number_of_resources 	16500
scalar Network300.node140 	time_period 	6
scalar Network300.node140 	number_of_messages 	14
scalar Network300.node140 	discovery_latency 	1548
scalar Network300.node140 	number_of_desired_resources 	20
scalar Network300.node140 	query_homogenity_rate 	33.333333333333
scalar Network300.node140 	qrecord_time 	23096.017539523
scalar Network300.node140 	discovery_resolution_rate 	33.333333333333
scalar Network300.node10 	rate_of_requesters 	1
scalar Network300.node10 	number_of_resources 	16500
scalar Network300.node10 	time_period 	4
scalar Network300.node10 	number_of_messages 	10
scalar Network300.node10 	discovery_latency 	1536
scalar Network300.node10 	number_of_desired_resources 	20
scalar Network300.node10 	query_homogenity_rate 	33.333333333333
scalar Network300.node10 	qrecord_time 	23228.036044271
scalar Network300.node10 	discovery_resolution_rate 	33.333333333333
scalar Network300.node10 	rate_of_requesters 	1
scalar Network300.node10 	number_of_resources 	16500
scalar Network300.node10 	time_period 	5
scalar Network300.node10 	number_of_messages 	10
scalar Network300.node10 	discovery_latency 	1536
scalar Network300.node10 	number_of_desired_resources 	20
scalar Network300.node10 	query_homogenity_rate 	33.333333333333
scalar Network300.node10 	qrecord_time 	23741.019205639
scalar Network300.node10 	discovery_resolution_rate 	33.333333333333
scalar Network300.node60 	rate_of_requesters 	1
scalar Network300.node60 	number_of_resources 	16500
scalar Network300.node60 	time_period 	7
scalar Network300.node60 	number_of_messages 	6
scalar Network300.node60 	discovery_latency 	1512
scalar Network300.node60 	number_of_desired_resources 	20
scalar Network300.node60 	query_homogenity_rate 	33.333333333333
scalar Network300.node60 	qrecord_time 	23756.074071972
[...]
scalar Network300.node50 	time_period 	9
scalar Network300.node50 	number_of_messages 	14
scalar Network300.node50 	discovery_latency 	1476
scalar Network300.node50 	number_of_desired_resources 	20
scalar Network300.node50 	query_homogenity_rate 	33.333333333333
scalar Network300.node50 	qrecord_time 	39884.691785884
scalar Network300.node50 	discovery_resolution_rate 	66.666666666667
scalar Network300.node20 	rate_of_requesters 	1
scalar Network300.node20 	number_of_resources 	16500
scalar Network300.node20 	time_period 	8
scalar Network300.node20 	number_of_messages 	2
scalar Network300.node20 	discovery_latency 	1512
scalar Network300.node20 	number_of_desired_resources 	20
scalar Network300.node20 	query_homogenity_rate 	33.333333333333
scalar Network300.node20 	qrecord_time 	39997.461176737
scalar Network300.node20 	discovery_resolution_rate 	33.333333333333
scalar Network300.node160 	rate_of_requesters 	1
scalar Network300.node160 	number_of_resources 	16500
scalar Network300.node160 	time_period 	10
scalar Network300.node160 	number_of_messages 	12
scalar Network300.node160 	discovery_latency 	1560
scalar Network300.node160 	number_of_desired_resources 	20
scalar Network300.node160 	query_homogenity_rate 	33.333333333333
scalar Network300.node160 	qrecord_time 	40094.476571853
scalar Network300.node160 	discovery_resolution_rate 	33.333333333333
scalar Network300.node200 	rate_of_requesters 	1
scalar Network300.node200 	number_of_resources 	16500
scalar Network300.node200 	time_period 	8
scalar Network300.node200 	number_of_messages 	22
scalar Network300.node200 	discovery_latency 	1488
scalar Network300.node200 	number_of_desired_resources 	20
scalar Network300.node200 	query_homogenity_rate 	33.333333333333
scalar Network300.node200 	qrecord_time 	40507.942056007
scalar Network300.node200 	discovery_resolution_rate 	66.666666666667
scalar Network300.node170 	rate_of_requesters 	1
scalar Network300.node170 	number_of_resources 	16500
scalar Network300.node170 	time_period 	6
scalar Network300.node170 	number_of_messages 	17
scalar Network300.node170 	discovery_latency 	168
scalar Network300.node170 	number_of_desired_resources 	20
scalar Network300.node170 	query_homogenity_rate 	33.333333333333
scalar Network300.node170 	qrecord_time 	41040.92638432
scalar Network300.node170 	discovery_resolution_rate 	100
scalar Network300.node190 	rate_of_requesters 	1
scalar Network300.node190 	number_of_resources 	16500
scalar Network300.node190 	time_period 	6
scalar Network300.node190 	number_of_messages 	18
scalar Network300.node190 	discovery_latency 	204
scalar Network300.node190 	number_of_desired_resources 	20
scalar Network300.node190 	query_homogenity_rate 	33.333333333333
scalar Network300.node190 	qrecord_time 	41148.179159863
scalar Network300.node190 	discovery_resolution_rate 	100
scalar Network300.node80 	rate_of_requesters 	1
scalar Network300.node80 	number_of_resources 	16500
scalar Network300.node80 	time_period 	7
scalar Network300.node80 	number_of_messages 	11
scalar Network300.node80 	discovery_latency 	1488
scalar Network300.node80 	number_of_desired_resources 	20
scalar Network300.node80 	query_homogenity_rate 	33.333333333333
scalar Network300.node80 	qrecord_time 	41250.736446343
scalar Network300.node80 	discovery_resolution_rate 	66.666666666667
scalar Network300.node100 	rate_of_requesters 	1
scalar Network300.node100 	number_of_resources 	16500
scalar Network300.node100 	time_period 	10
scalar Network300.node100 	number_of_messages 	19
scalar Network300.node100 	discovery_latency 	192
scalar Network300.node100 	number_of_desired_resources 	20
scalar Network300.node100 	query_homogenity_rate 	33.333333333333
scalar Network300.node100 	qrecord_time 	41418.966496246
scalar Network300.node100 	discovery_resolution_rate 	100
scalar Network300.node130 	rate_of_requesters 	1
scalar Network300.node130 	number_of_resources 	16500
scalar Network300.node130 	time_period 	7
scalar Network300.node130 	number_of_messages 	20
scalar Network300.node130 	discovery_latency 	132.00000000001
scalar Network300.node130 	number_of_desired_resources 	20
scalar Network300.node130 	query_homogenity_rate 	33.333333333333
scalar Network300.node130 	qrecord_time 	42435.941678306
scalar Network300.node130 	discovery_resolution_rate 	100
scalar Network300.node290 	rate_of_requesters 	1
scalar Network300.node290 	number_of_resources 	16500
scalar Network300.node290 	time_period 	9
scalar Network300.node290 	number_of_messages 	24
scalar Network300.node290 	discovery_latency 	180
scalar Network300.node290 	number_of_desired_resources 	20
scalar Network300.node290 	query_homogenity_rate 	33.333333333333
scalar Network300.node290 	qrecord_time 	42724.200497162
scalar Network300.node290 	discovery_resolution_rate 	100
scalar Network300.node170 	rate_of_requesters 	1
scalar Network300.node170 	number_of_resources 	16500
scalar Network300.node170 	time_period 	7
scalar Network300.node170 	number_of_messages 	18
scalar Network300.node170 	discovery_latency 	168
scalar Network300.node170 	number_of_desired_resources 	20
scalar Network300.node170 	query_homogenity_rate 	33.333333333333
scalar Network300.node170 	qrecord_time 	42793.80377366
scalar Network300.node170 	discovery_resolution_rate 	100
scalar Network300.node200 	rate_of_requesters 	1
scalar Network300.node200 	number_of_resources 	16500
scalar Network300.node200 	time_period 	9
scalar Network300.node200 	number_of_messages 	92
scalar Network300.node200 	discovery_latency 	1548
scalar Network300.node200 	number_of_desired_resources 	20
scalar Network300.node200 	query_homogenity_rate 	33.333333333333
scalar Network300.node200 	qrecord_time 	44368.605532027
scalar Network300.node200 	discovery_resolution_rate 	83.333333333333
scalar Network300.node170 	rate_of_requesters 	1
scalar Network300.node170 	number_of_resources 	16500
scalar Network300.node170 	time_period 	9
scalar Network300.node170 	number_of_messages 	23
scalar Network300.node170 	discovery_latency 	228
scalar Network300.node170 	number_of_desired_resources 	20
scalar Network300.node170 	query_homogenity_rate 	33.333333333333
scalar Network300.node170 	qrecord_time 	44587.242566711
scalar Network300.node170 	discovery_resolution_rate 	100
scalar Network300.node260 	rate_of_requesters 	1
scalar Network300.node260 	number_of_resources 	16500
scalar Network300.node260 	time_period 	8
scalar Network300.node260 	number_of_messages 	15
scalar Network300.node260 	discovery_latency 	1584
scalar Network300.node260 	number_of_desired_resources 	20
scalar Network300.node260 	query_homogenity_rate 	33.333333333333
scalar Network300.node260 	qrecord_time 	44589.707449167
scalar Network300.node260 	discovery_resolution_rate 	66.666666666667
scalar Network300.node110 	rate_of_requesters 	1
scalar Network300.node110 	number_of_resources 	16500
scalar Network300.node110 	time_period 	8
scalar Network300.node110 	number_of_messages 	25
scalar Network300.node110 	discovery_latency 	228
scalar Network300.node110 	number_of_desired_resources 	20
scalar Network300.node110 	query_homogenity_rate 	33.333333333333
scalar Network300.node110 	qrecord_time 	45025.419730199
scalar Network300.node110 	discovery_resolution_rate 	100
scalar Network300.node260 	rate_of_requesters 	1
scalar Network300.node260 	number_of_resources 	16500
scalar Network300.node260 	time_period 	9
scalar Network300.node260 	number_of_messages 	80
scalar Network300.node260 	discovery_latency 	1584
scalar Network300.node260 	number_of_desired_resources 	20
scalar Network300.node260 	query_homogenity_rate 	33.333333333333
scalar Network300.node260 	qrecord_time 	45242.866862518
scalar Network300.node260 	discovery_resolution_rate 	50
scalar Network300.node200 	rate_of_requesters 	1
scalar Network300.node200 	number_of_resources 	16500
scalar Network300.node200 	time_period 	10
scalar Network300.node200 	number_of_messages 	28
scalar Network300.node200 	discovery_latency 	252
scalar Network300.node200 	number_of_desired_resources 	20
scalar Network300.node200 	query_homogenity_rate 	33.333333333333
scalar Network300.node200 	qrecord_time 	45381.039469606
scalar Network300.node200 	discovery_resolution_rate 	100
scalar Network300.node170 	rate_of_requesters 	1
scalar Network300.node170 	number_of_resources 	16500
scalar Network300.node170 	time_period 	8
scalar Network300.node170 	number_of_messages 	16
scalar Network300.node170 	discovery_latency 	1536
scalar Network300.node170 	number_of_desired_resources 	20
scalar Network300.node170 	query_homogenity_rate 	33.333333333333
scalar Network300.node170 	qrecord_time 	45536.069280939
scalar Network300.node170 	discovery_resolution_rate 	66.666666666667
scalar Network300.node110 	rate_of_requesters 	1
scalar Network300.node110 	number_of_resources 	16500
scalar Network300.node110 	time_period 	7
scalar Network300.node110 	number_of_messages 	7
scalar Network300.node110 	discovery_latency 	1644
scalar Network300.node110 	number_of_desired_resources 	20
scalar Network300.node110 	query_homogenity_rate 	33.333333333333
scalar Network300.node110 	qrecord_time 	45646.116749502
scalar Network300.node110 	discovery_resolution_rate 	33.333333333333
scalar Network300.node190 	rate_of_requesters 	1
scalar Network300.node190 	number_of_resources 	16500
scalar Network300.node190 	time_period 	7
scalar Network300.node190 	number_of_messages 	3
scalar Network300.node190 	discovery_latency 	1572
scalar Network300.node190 	number_of_desired_resources 	20
scalar Network300.node190 	query_homogenity_rate 	33.333333333333
scalar Network300.node190 	qrecord_time 	45717.221327684
scalar Network300.node190 	discovery_resolution_rate 	33.333333333333
scalar Network300.node210 	rate_of_requesters 	1
scalar Network300.node210 	number_of_resources 	16500
scalar Network300.node210 	time_period 	10
scalar Network300.node210 	number_of_messages 	17
scalar Network300.node210 	discovery_latency 	168
scalar Network300.node210 	number_of_desired_resources 	20
scalar Network300.node210 	query_homogenity_rate 	33.333333333333
scalar Network300.node210 	qrecord_time 	45817.860609721
scalar Network300.node210 	discovery_resolution_rate 	100
scalar Network300.node190 	rate_of_requesters 	1
scalar Network300.node190 	number_of_resources 	16500
scalar Network300.node190 	time_period 	8
scalar Network300.node190 	number_of_messages 	29
scalar Network300.node190 	discovery_latency 	264
scalar Network300.node190 	number_of_desired_resources 	20
scalar Network300.node190 	query_homogenity_rate 	33.333333333333
scalar Network300.node190 	qrecord_time 	46444.707763358
scalar Network300.node190 	discovery_resolution_rate 	100
scalar Network300.node110 	rate_of_requesters 	1
scalar Network300.node110 	number_of_resources 	16500
scalar Network300.node110 	time_period 	10
scalar Network300.node110 	number_of_messages 	26
scalar Network300.node110 	discovery_latency 	227.99999999999
scalar Network300.node110 	number_of_desired_resources 	20
scalar Network300.node110 	query_homogenity_rate 	33.333333333333
scalar Network300.node110 	qrecord_time 	46972.667434592
scalar Network300.node110 	discovery_resolution_rate 	100
scalar Network300.node20 	rate_of_requesters 	1
scalar Network300.node20 	number_of_resources 	16500
scalar Network300.node20 	time_period 	9
scalar Network300.node20 	number_of_messages 	91
scalar Network300.node20 	discovery_latency 	1572
scalar Network300.node20 	number_of_desired_resources 	20
scalar Network300.node20 	query_homogenity_rate 	33.333333333333
scalar Network300.node20 	qrecord_time 	47322.101760487
scalar Network300.node20 	discovery_resolution_rate 	83.333333333333
scalar Network300.node230 	rate_of_requesters 	1
scalar Network300.node230 	number_of_resources 	16500
scalar Network300.node230 	time_period 	8
scalar Network300.node230 	number_of_messages 	23
scalar Network300.node230 	discovery_latency 	204
scalar Network300.node230 	number_of_desired_resources 	20
scalar Network300.node230 	query_homogenity_rate 	33.333333333333
scalar Network300.node230 	qrecord_time 	47471.128564709
scalar Network300.node230 	discovery_resolution_rate 	100
scalar Network300.node240 	rate_of_requesters 	1
scalar Network300.node240 	number_of_resources 	16500
scalar Network300.node240 	time_period 	10
scalar Network300.node240 	number_of_messages 	29
scalar Network300.node240 	discovery_latency 	240
scalar Network300.node240 	number_of_desired_resources 	20
scalar Network300.node240 	query_homogenity_rate 	33.333333333333
scalar Network300.node240 	qrecord_time 	47592.935737221
scalar Network300.node240 	discovery_resolution_rate 	100
scalar Network300.node20 	rate_of_requesters 	1
scalar Network300.node20 	number_of_resources 	16500
scalar Network300.node20 	time_period 	10
scalar Network300.node20 	number_of_messages 	25
scalar Network300.node20 	discovery_latency 	252
scalar Network300.node20 	number_of_desired_resources 	20
scalar Network300.node20 	query_homogenity_rate 	33.333333333333
scalar Network300.node20 	qrecord_time 	47628.704225721
scalar Network300.node20 	discovery_resolution_rate 	100
scalar Network300.node230 	rate_of_requesters 	1
scalar Network300.node230 	number_of_resources 	16500
scalar Network300.node230 	time_period 	9
scalar Network300.node230 	number_of_messages 	28
scalar Network300.node230 	discovery_latency 	204
scalar Network300.node230 	number_of_desired_resources 	20
scalar Network300.node230 	query_homogenity_rate 	33.333333333333
scalar Network300.node230 	qrecord_time 	47821.205198288
scalar Network300.node230 	discovery_resolution_rate 	100
scalar Network300.node170 	rate_of_requesters 	1
scalar Network300.node170 	number_of_resources 	16500
scalar Network300.node170 	time_period 	10
scalar Network300.node170 	number_of_messages 	5
scalar Network300.node170 	discovery_latency 	1644
scalar Network300.node170 	number_of_desired_resources 	20
scalar Network300.node170 	query_homogenity_rate 	33.333333333333
scalar Network300.node170 	qrecord_time 	47878.002062608
scalar Network300.node170 	discovery_resolution_rate 	33.333333333333
scalar Network300.node110 	rate_of_requesters 	1
scalar Network300.node110 	number_of_resources 	16500
scalar Network300.node110 	time_period 	9
scalar Network300.node110 	number_of_messages 	17
scalar Network300.node110 	discovery_latency 	1668
scalar Network300.node110 	number_of_desired_resources 	20
scalar Network300.node110 	query_homogenity_rate 	33.333333333333
scalar Network300.node110 	qrecord_time 	48083.298932855
scalar Network300.node110 	discovery_resolution_rate 	66.666666666667
scalar Network300.node80 	rate_of_requesters 	1
scalar Network300.node80 	number_of_resources 	16500
scalar Network300.node80 	time_period 	8
scalar Network300.node80 	number_of_messages 	5
scalar Network300.node80 	discovery_latency 	1620
scalar Network300.node80 	number_of_desired_resources 	20
scalar Network300.node80 	query_homogenity_rate 	33.333333333333
scalar Network300.node80 	qrecord_time 	48413.247130031
scalar Network300.node80 	discovery_resolution_rate 	33.333333333333
scalar Network300.node130 	rate_of_requesters 	1
scalar Network300.node130 	number_of_resources 	16500
scalar Network300.node130 	time_period 	8
scalar Network300.node130 	number_of_messages 	31
scalar Network300.node130 	discovery_latency 	239.99999999999
scalar Network300.node130 	number_of_desired_resources 	20
scalar Network300.node130 	query_homogenity_rate 	33.333333333333
scalar Network300.node130 	qrecord_time 	48638.751770719
scalar Network300.node130 	discovery_resolution_rate 	100
scalar Network300.node190 	rate_of_requesters 	1
scalar Network300.node190 	number_of_resources 	16500
scalar Network300.node190 	time_period 	9
scalar Network300.node190 	number_of_messages 	24
scalar Network300.node190 	discovery_latency 	252
scalar Network300.node190 	number_of_desired_resources 	20
scalar Network300.node190 	query_homogenity_rate 	33.333333333333
scalar Network300.node190 	qrecord_time 	49481.801382733
scalar Network300.node190 	discovery_resolution_rate 	100
scalar Network300.node230 	rate_of_requesters 	1
scalar Network300.node230 	number_of_resources 	16500
scalar Network300.node230 	time_period 	10
scalar Network300.node230 	number_of_messages 	4
scalar Network300.node230 	discovery_latency 	1512
scalar Network300.node230 	number_of_desired_resources 	20
scalar Network300.node230 	query_homogenity_rate 	33.333333333333
scalar Network300.node230 	qrecord_time 	49548.740711105
scalar Network300.node230 	discovery_resolution_rate 	33.333333333333
scalar Network300.node290 	rate_of_requesters 	1
scalar Network300.node290 	number_of_resources 	16500
scalar Network300.node290 	time_period 	10
scalar Network300.node290 	number_of_messages 	86
scalar Network300.node290 	discovery_latency 	1668
scalar Network300.node290 	number_of_desired_resources 	20
scalar Network300.node290 	query_homogenity_rate 	33.333333333333
scalar Network300.node290 	qrecord_time 	50380.417337146
scalar Network300.node290 	discovery_resolution_rate 	50
scalar Network300.node130 	rate_of_requesters 	1
scalar Network300.node130 	number_of_resources 	16500
scalar Network300.node130 	time_period 	9
scalar Network300.node130 	number_of_messages 	19
scalar Network300.node130 	discovery_latency 	132.00000000001
scalar Network300.node130 	number_of_desired_resources 	20
scalar Network300.node130 	query_homogenity_rate 	33.333333333333
scalar Network300.node130 	qrecord_time 	50582.560024461
scalar Network300.node130 	discovery_resolution_rate 	100
scalar Network300.node80 	rate_of_requesters 	1
scalar Network300.node80 	number_of_resources 	16500
scalar Network300.node80 	time_period 	9
scalar Network300.node80 	number_of_messages 	23
scalar Network300.node80 	discovery_latency 	216
scalar Network300.node80 	number_of_desired_resources 	20
scalar Network300.node80 	query_homogenity_rate 	33.333333333333
scalar Network300.node80 	qrecord_time 	50669.120614524
scalar Network300.node80 	discovery_resolution_rate 	100
scalar Network300.node190 	rate_of_requesters 	1
scalar Network300.node190 	number_of_resources 	16500
scalar Network300.node190 	time_period 	10
scalar Network300.node190 	number_of_messages 	16
scalar Network300.node190 	discovery_latency 	156
scalar Network300.node190 	number_of_desired_resources 	20
scalar Network300.node190 	query_homogenity_rate 	33.333333333333
scalar Network300.node190 	qrecord_time 	52040.05989026
scalar Network300.node190 	discovery_resolution_rate 	100
scalar Network300.node130 	rate_of_requesters 	1
scalar Network300.node130 	number_of_resources 	16500
scalar Network300.node130 	time_period 	10
scalar Network300.node130 	number_of_messages 	14
scalar Network300.node130 	discovery_latency 	1512
scalar Network300.node130 	number_of_desired_resources 	20
scalar Network300.node130 	query_homogenity_rate 	33.333333333333
scalar Network300.node130 	qrecord_time 	52110.325022818
scalar Network300.node130 	discovery_resolution_rate 	66.666666666667
scalar Network300.node80 	rate_of_requesters 	1
scalar Network300.node80 	number_of_resources 	16500
scalar Network300.node80 	time_period 	10
scalar Network300.node80 	number_of_messages 	17
scalar Network300.node80 	discovery_latency 	120
scalar Network300.node80 	number_of_desired_resources 	20
scalar Network300.node80 	query_homogenity_rate 	33.333333333333
scalar Network300.node80 	qrecord_time 	53710.851429406
scalar Network300.node80 	discovery_resolution_rate 	100
scalar Network300.node260 	rate_of_requesters 	1
scalar Network300.node260 	number_of_resources 	16500
scalar Network300.node260 	time_period 	10
scalar Network300.node260 	number_of_messages 	14
scalar Network300.node260 	discovery_latency 	120
scalar Network300.node260 	number_of_desired_resources 	20
scalar Network300.node260 	query_homogenity_rate 	33.333333333333
scalar Network300.node260 	qrecord_time 	61844.59271243
scalar Network300.node260 	discovery_resolution_rate 	100
