version 2
run net400-0-20150623-18:28:04-8951
attr as 1
attr configname net400
attr datetime 20150623-18:28:04
attr dnor 20
attr experiment net400
attr inifile omnetpp.ini
attr iterationvars "$rhdrq=3, $dnor=20, $as=1"
attr iterationvars2 "$rhdrq=3, $dnor=20, $as=1, $repetition=0"
attr measurement "$rhdrq=3, $dnor=20, $as=1"
attr network Network400
attr processid 8951
attr repetition 0
attr replication #0
attr resultdir results
attr rhdrq 3
attr runnumber 0
attr seedset 0

scalar . 	as 	1
scalar . 	dnor 	20
scalar . 	rhdrq 	3
scalar Network400.node360 	rate_of_requesters 	1
scalar Network400.node360 	number_of_resources 	22000
scalar Network400.node360 	time_period 	1
scalar Network400.node360 	number_of_messages 	28
scalar Network400.node360 	discovery_latency 	300
scalar Network400.node360 	number_of_desired_resources 	20
scalar Network400.node360 	query_homogenity_rate 	33.333333333333
scalar Network400.node360 	qrecord_time 	4984
scalar Network400.node360 	discovery_resolution_rate 	100
scalar Network400.node120 	rate_of_requesters 	1
scalar Network400.node120 	number_of_resources 	22000
scalar Network400.node120 	time_period 	1
scalar Network400.node120 	number_of_messages 	32
scalar Network400.node120 	discovery_latency 	288
scalar Network400.node120 	number_of_desired_resources 	20
scalar Network400.node120 	query_homogenity_rate 	33.333333333333
scalar Network400.node120 	qrecord_time 	4984
scalar Network400.node120 	discovery_resolution_rate 	100
scalar Network400.node380 	rate_of_requesters 	1
scalar Network400.node380 	number_of_resources 	22000
scalar Network400.node380 	time_period 	1
scalar Network400.node380 	number_of_messages 	39
scalar Network400.node380 	discovery_latency 	288
scalar Network400.node380 	number_of_desired_resources 	20
scalar Network400.node380 	query_homogenity_rate 	33.333333333333
scalar Network400.node380 	qrecord_time 	5002
scalar Network400.node380 	discovery_resolution_rate 	100
scalar Network400.node90 	rate_of_requesters 	1
scalar Network400.node90 	number_of_resources 	22000
scalar Network400.node90 	time_period 	1
scalar Network400.node90 	number_of_messages 	32
scalar Network400.node90 	discovery_latency 	354
scalar Network400.node90 	number_of_desired_resources 	20
scalar Network400.node90 	query_homogenity_rate 	33.333333333333
scalar Network400.node90 	qrecord_time 	5044
scalar Network400.node90 	discovery_resolution_rate 	100
scalar Network400.node40 	rate_of_requesters 	1
scalar Network400.node40 	number_of_resources 	22000
scalar Network400.node40 	time_period 	1
scalar Network400.node40 	number_of_messages 	43
scalar Network400.node40 	discovery_latency 	336
scalar Network400.node40 	number_of_desired_resources 	20
scalar Network400.node40 	query_homogenity_rate 	33.333333333333
scalar Network400.node40 	qrecord_time 	5044
scalar Network400.node40 	discovery_resolution_rate 	100
scalar Network400.node100 	rate_of_requesters 	1
scalar Network400.node100 	number_of_resources 	22000
scalar Network400.node100 	time_period 	1
scalar Network400.node100 	number_of_messages 	43
scalar Network400.node100 	discovery_latency 	504
scalar Network400.node100 	number_of_desired_resources 	20
scalar Network400.node100 	query_homogenity_rate 	33.333333333333
scalar Network400.node100 	qrecord_time 	5272
scalar Network400.node100 	discovery_resolution_rate 	100
scalar Network400.node230 	rate_of_requesters 	1
scalar Network400.node230 	number_of_resources 	22000
scalar Network400.node230 	time_period 	1
scalar Network400.node230 	number_of_messages 	44
scalar Network400.node230 	discovery_latency 	564
scalar Network400.node230 	number_of_desired_resources 	20
scalar Network400.node230 	query_homogenity_rate 	33.333333333333
scalar Network400.node230 	qrecord_time 	5374
scalar Network400.node230 	discovery_resolution_rate 	100
scalar Network400.node190 	rate_of_requesters 	1
scalar Network400.node190 	number_of_resources 	22000
scalar Network400.node190 	time_period 	1
scalar Network400.node190 	number_of_messages 	72
scalar Network400.node190 	discovery_latency 	648
scalar Network400.node190 	number_of_desired_resources 	20
scalar Network400.node190 	query_homogenity_rate 	33.333333333333
scalar Network400.node190 	qrecord_time 	5422
scalar Network400.node190 	discovery_resolution_rate 	100
scalar Network400.node20 	rate_of_requesters 	1
scalar Network400.node20 	number_of_resources 	22000
scalar Network400.node20 	time_period 	2
scalar Network400.node20 	number_of_messages 	78
scalar Network400.node20 	discovery_latency 	684
scalar Network400.node20 	number_of_desired_resources 	20
scalar Network400.node20 	query_homogenity_rate 	33.333333333333
scalar Network400.node20 	qrecord_time 	5428.299431763
scalar Network400.node20 	discovery_resolution_rate 	100
scalar Network400.node30 	rate_of_requesters 	1
scalar Network400.node30 	number_of_resources 	22000
scalar Network400.node30 	time_period 	1
scalar Network400.node30 	number_of_messages 	52
scalar Network400.node30 	discovery_latency 	720
scalar Network400.node30 	number_of_desired_resources 	20
scalar Network400.node30 	query_homogenity_rate 	33.333333333333
scalar Network400.node30 	qrecord_time 	5470
scalar Network400.node30 	discovery_resolution_rate 	100
scalar Network400.node170 	rate_of_requesters 	1
scalar Network400.node170 	number_of_resources 	22000
scalar Network400.node170 	time_period 	1
scalar Network400.node170 	number_of_messages 	13
scalar Network400.node170 	discovery_latency 	2340
scalar Network400.node170 	number_of_desired_resources 	20
scalar Network400.node170 	query_homogenity_rate 	33.333333333333
scalar Network400.node170 	qrecord_time 	7060
scalar Network400.node170 	discovery_resolution_rate 	66.666666666667
scalar Network400.node200 	rate_of_requesters 	1
scalar Network400.node200 	number_of_resources 	22000
scalar Network400.node200 	time_period 	1
scalar Network400.node200 	number_of_messages 	17
scalar Network400.node200 	discovery_latency 	2364
scalar Network400.node200 	number_of_desired_resources 	20
scalar Network400.node200 	query_homogenity_rate 	33.333333333333
scalar Network400.node200 	qrecord_time 	7096
scalar Network400.node200 	discovery_resolution_rate 	66.666666666667
scalar Network400.node270 	rate_of_requesters 	1
scalar Network400.node270 	number_of_resources 	22000
scalar Network400.node270 	time_period 	1
scalar Network400.node270 	number_of_messages 	71
scalar Network400.node270 	discovery_latency 	2472
scalar Network400.node270 	number_of_desired_resources 	20
scalar Network400.node270 	query_homogenity_rate 	33.333333333333
scalar Network400.node270 	qrecord_time 	7228
scalar Network400.node270 	discovery_resolution_rate 	66.666666666667
scalar Network400.node180 	rate_of_requesters 	1
scalar Network400.node180 	number_of_resources 	22000
scalar Network400.node180 	time_period 	1
scalar Network400.node180 	number_of_messages 	13
scalar Network400.node180 	discovery_latency 	2478
scalar Network400.node180 	number_of_desired_resources 	20
scalar Network400.node180 	query_homogenity_rate 	33.333333333333
scalar Network400.node180 	qrecord_time 	7228
scalar Network400.node180 	discovery_resolution_rate 	66.666666666667
scalar Network400.node140 	rate_of_requesters 	1
scalar Network400.node140 	number_of_resources 	22000
scalar Network400.node140 	time_period 	1
scalar Network400.node140 	number_of_messages 	30
scalar Network400.node140 	discovery_latency 	2592
scalar Network400.node140 	number_of_desired_resources 	20
scalar Network400.node140 	query_homogenity_rate 	33.333333333333
scalar Network400.node140 	qrecord_time 	7240
scalar Network400.node140 	discovery_resolution_rate 	66.666666666667
scalar Network400.node0 	rate_of_requesters 	1
scalar Network400.node0 	number_of_resources 	22000
scalar Network400.node0 	time_period 	1
scalar Network400.node0 	number_of_messages 	12
scalar Network400.node0 	discovery_latency 	2508
scalar Network400.node0 	number_of_desired_resources 	20
scalar Network400.node0 	query_homogenity_rate 	33.333333333333
scalar Network400.node0 	qrecord_time 	7252
scalar Network400.node0 	discovery_resolution_rate 	66.666666666667
scalar Network400.node150 	rate_of_requesters 	1
scalar Network400.node150 	number_of_resources 	22000
scalar Network400.node150 	time_period 	1
scalar Network400.node150 	number_of_messages 	12
scalar Network400.node150 	discovery_latency 	2544
scalar Network400.node150 	number_of_desired_resources 	20
scalar Network400.node150 	query_homogenity_rate 	33.333333333333
scalar Network400.node150 	qrecord_time 	7258
scalar Network400.node150 	discovery_resolution_rate 	66.666666666667
scalar Network400.node20 	rate_of_requesters 	1
scalar Network400.node20 	number_of_resources 	22000
scalar Network400.node20 	time_period 	1
scalar Network400.node20 	number_of_messages 	43
scalar Network400.node20 	discovery_latency 	2574
scalar Network400.node20 	number_of_desired_resources 	20
scalar Network400.node20 	query_homogenity_rate 	33.333333333333
scalar Network400.node20 	qrecord_time 	7312
scalar Network400.node20 	discovery_resolution_rate 	66.666666666667
scalar Network400.node330 	rate_of_requesters 	1
scalar Network400.node330 	number_of_resources 	22000
scalar Network400.node330 	time_period 	1
scalar Network400.node330 	number_of_messages 	8
scalar Network400.node330 	discovery_latency 	2586
scalar Network400.node330 	number_of_desired_resources 	20
scalar Network400.node330 	query_homogenity_rate 	33.333333333333
scalar Network400.node330 	qrecord_time 	7318
scalar Network400.node330 	discovery_resolution_rate 	66.666666666667
scalar Network400.node350 	rate_of_requesters 	1
scalar Network400.node350 	number_of_resources 	22000
scalar Network400.node350 	time_period 	1
scalar Network400.node350 	number_of_messages 	22
scalar Network400.node350 	discovery_latency 	2652
scalar Network400.node350 	number_of_desired_resources 	20
scalar Network400.node350 	query_homogenity_rate 	33.333333333333
scalar Network400.node350 	qrecord_time 	7336
scalar Network400.node350 	discovery_resolution_rate 	66.666666666667
scalar Network400.node320 	rate_of_requesters 	1
scalar Network400.node320 	number_of_resources 	22000
scalar Network400.node320 	time_period 	1
scalar Network400.node320 	number_of_messages 	55
scalar Network400.node320 	discovery_latency 	2592
scalar Network400.node320 	number_of_desired_resources 	20
scalar Network400.node320 	query_homogenity_rate 	33.333333333333
scalar Network400.node320 	qrecord_time 	7402
scalar Network400.node320 	discovery_resolution_rate 	66.666666666667
scalar Network400.node180 	rate_of_requesters 	1
scalar Network400.node180 	number_of_resources 	22000
scalar Network400.node180 	time_period 	2
scalar Network400.node180 	number_of_messages 	33
scalar Network400.node180 	discovery_latency 	2586
scalar Network400.node180 	number_of_desired_resources 	20
scalar Network400.node180 	query_homogenity_rate 	33.333333333333
scalar Network400.node180 	qrecord_time 	7465.425066821
scalar Network400.node180 	discovery_resolution_rate 	66.666666666667
scalar Network400.node180 	rate_of_requesters 	1
scalar Network400.node180 	number_of_resources 	22000
scalar Network400.node180 	time_period 	3
scalar Network400.node180 	number_of_messages 	6
scalar Network400.node180 	discovery_latency 	2664
scalar Network400.node180 	number_of_desired_resources 	20
scalar Network400.node180 	query_homogenity_rate 	33.333333333333
scalar Network400.node180 	qrecord_time 	7544.526613599
scalar Network400.node180 	discovery_resolution_rate 	33.333333333333
scalar Network400.node70 	rate_of_requesters 	1
scalar Network400.node70 	number_of_resources 	22000
scalar Network400.node70 	time_period 	1
scalar Network400.node70 	number_of_messages 	7
scalar Network400.node70 	discovery_latency 	2916
scalar Network400.node70 	number_of_desired_resources 	20
scalar Network400.node70 	query_homogenity_rate 	33.333333333333
scalar Network400.node70 	qrecord_time 	7666
scalar Network400.node70 	discovery_resolution_rate 	33.333333333333
scalar Network400.node80 	rate_of_requesters 	1
scalar Network400.node80 	number_of_resources 	22000
scalar Network400.node80 	time_period 	1
scalar Network400.node80 	number_of_messages 	16
scalar Network400.node80 	discovery_latency 	2964
scalar Network400.node80 	number_of_desired_resources 	20
scalar Network400.node80 	query_homogenity_rate 	33.333333333333
scalar Network400.node80 	qrecord_time 	7714
scalar Network400.node80 	discovery_resolution_rate 	66.666666666667
scalar Network400.node260 	rate_of_requesters 	1
scalar Network400.node260 	number_of_resources 	22000
scalar Network400.node260 	time_period 	1
scalar Network400.node260 	number_of_messages 	15
scalar Network400.node260 	discovery_latency 	3036
scalar Network400.node260 	number_of_desired_resources 	20
scalar Network400.node260 	query_homogenity_rate 	33.333333333333
scalar Network400.node260 	qrecord_time 	7726
scalar Network400.node260 	discovery_resolution_rate 	33.333333333333
scalar Network400.node300 	rate_of_requesters 	1
scalar Network400.node300 	number_of_resources 	22000
scalar Network400.node300 	time_period 	1
scalar Network400.node300 	number_of_messages 	151
scalar Network400.node300 	discovery_latency 	2988
scalar Network400.node300 	number_of_desired_resources 	20
scalar Network400.node300 	query_homogenity_rate 	33.333333333333
scalar Network400.node300 	qrecord_time 	7738
scalar Network400.node300 	discovery_resolution_rate 	50
scalar Network400.node240 	rate_of_requesters 	1
scalar Network400.node240 	number_of_resources 	22000
scalar Network400.node240 	time_period 	1
scalar Network400.node240 	number_of_messages 	12
scalar Network400.node240 	discovery_latency 	3060
scalar Network400.node240 	number_of_desired_resources 	20
scalar Network400.node240 	query_homogenity_rate 	33.333333333333
scalar Network400.node240 	qrecord_time 	7750
scalar Network400.node240 	discovery_resolution_rate 	33.333333333333
scalar Network400.node210 	rate_of_requesters 	1
scalar Network400.node210 	number_of_resources 	22000
scalar Network400.node210 	time_period 	1
scalar Network400.node210 	number_of_messages 	8
scalar Network400.node210 	discovery_latency 	2976
scalar Network400.node210 	number_of_desired_resources 	20
scalar Network400.node210 	query_homogenity_rate 	33.333333333333
scalar Network400.node210 	qrecord_time 	7756
scalar Network400.node210 	discovery_resolution_rate 	33.333333333333
scalar Network400.node280 	rate_of_requesters 	1
scalar Network400.node280 	number_of_resources 	22000
scalar Network400.node280 	time_period 	1
scalar Network400.node280 	number_of_messages 	8
scalar Network400.node280 	discovery_latency 	3072
scalar Network400.node280 	number_of_desired_resources 	20
scalar Network400.node280 	query_homogenity_rate 	33.333333333333
scalar Network400.node280 	qrecord_time 	7756
scalar Network400.node280 	discovery_resolution_rate 	33.333333333333
scalar Network400.node250 	rate_of_requesters 	1
scalar Network400.node250 	number_of_resources 	22000
scalar Network400.node250 	time_period 	1
scalar Network400.node250 	number_of_messages 	188
scalar Network400.node250 	discovery_latency 	3036
scalar Network400.node250 	number_of_desired_resources 	20
scalar Network400.node250 	query_homogenity_rate 	33.333333333333
scalar Network400.node250 	qrecord_time 	7780
scalar Network400.node250 	discovery_resolution_rate 	50
scalar Network400.node340 	rate_of_requesters 	1
scalar Network400.node340 	number_of_resources 	22000
scalar Network400.node340 	time_period 	1
scalar Network400.node340 	number_of_messages 	12
scalar Network400.node340 	discovery_latency 	3084
scalar Network400.node340 	number_of_desired_resources 	20
scalar Network400.node340 	query_homogenity_rate 	33.333333333333
scalar Network400.node340 	qrecord_time 	7792
scalar Network400.node340 	discovery_resolution_rate 	33.333333333333
scalar Network400.node160 	rate_of_requesters 	1
scalar Network400.node160 	number_of_resources 	22000
scalar Network400.node160 	time_period 	1
scalar Network400.node160 	number_of_messages 	38
scalar Network400.node160 	discovery_latency 	3036
scalar Network400.node160 	number_of_desired_resources 	20
scalar Network400.node160 	query_homogenity_rate 	33.333333333333
scalar Network400.node160 	qrecord_time 	7792
scalar Network400.node160 	discovery_resolution_rate 	66.666666666667
scalar Network400.node50 	rate_of_requesters 	1
scalar Network400.node50 	number_of_resources 	22000
scalar Network400.node50 	time_period 	1
scalar Network400.node50 	number_of_messages 	9
scalar Network400.node50 	discovery_latency 	3000
scalar Network400.node50 	number_of_desired_resources 	20
scalar Network400.node50 	query_homogenity_rate 	33.333333333333
scalar Network400.node50 	qrecord_time 	7798
scalar Network400.node50 	discovery_resolution_rate 	33.333333333333
scalar Network400.node370 	rate_of_requesters 	1
scalar Network400.node370 	number_of_resources 	22000
scalar Network400.node370 	time_period 	1
scalar Network400.node370 	number_of_messages 	6
scalar Network400.node370 	discovery_latency 	3072
scalar Network400.node370 	number_of_desired_resources 	20
scalar Network400.node370 	query_homogenity_rate 	33.333333333333
scalar Network400.node370 	qrecord_time 	7810
scalar Network400.node370 	discovery_resolution_rate 	33.333333333333
scalar Network400.node220 	rate_of_requesters 	1
scalar Network400.node220 	number_of_resources 	22000
scalar Network400.node220 	time_period 	1
scalar Network400.node220 	number_of_messages 	2
scalar Network400.node220 	discovery_latency 	3072
scalar Network400.node220 	number_of_desired_resources 	20
scalar Network400.node220 	query_homogenity_rate 	33.333333333333
scalar Network400.node220 	qrecord_time 	7810
scalar Network400.node220 	discovery_resolution_rate 	0
scalar Network400.node10 	rate_of_requesters 	1
scalar Network400.node10 	number_of_resources 	22000
scalar Network400.node10 	time_period 	1
scalar Network400.node10 	number_of_messages 	194
scalar Network400.node10 	discovery_latency 	3144
scalar Network400.node10 	number_of_desired_resources 	20
scalar Network400.node10 	query_homogenity_rate 	33.333333333333
scalar Network400.node10 	qrecord_time 	7828
scalar Network400.node10 	discovery_resolution_rate 	50
scalar Network400.node290 	rate_of_requesters 	1
scalar Network400.node290 	number_of_resources 	22000
scalar Network400.node290 	time_period 	1
scalar Network400.node290 	number_of_messages 	16
scalar Network400.node290 	discovery_latency 	3120
scalar Network400.node290 	number_of_desired_resources 	20
scalar Network400.node290 	query_homogenity_rate 	33.333333333333
scalar Network400.node290 	qrecord_time 	7834
scalar Network400.node290 	discovery_resolution_rate 	66.666666666667
scalar Network400.node110 	rate_of_requesters 	1
scalar Network400.node110 	number_of_resources 	22000
scalar Network400.node110 	time_period 	1
scalar Network400.node110 	number_of_messages 	6
scalar Network400.node110 	discovery_latency 	3048
scalar Network400.node110 	number_of_desired_resources 	20
scalar Network400.node110 	query_homogenity_rate 	33.333333333333
scalar Network400.node110 	qrecord_time 	7840
scalar Network400.node110 	discovery_resolution_rate 	33.333333333333
scalar Network400.node310 	rate_of_requesters 	1
scalar Network400.node310 	number_of_resources 	22000
scalar Network400.node310 	time_period 	2
scalar Network400.node310 	number_of_messages 	9
scalar Network400.node310 	discovery_latency 	3012
scalar Network400.node310 	number_of_desired_resources 	20
scalar Network400.node310 	query_homogenity_rate 	33.333333333333
scalar Network400.node310 	qrecord_time 	7858.871152027
scalar Network400.node310 	discovery_resolution_rate 	33.333333333333
scalar Network400.node310 	rate_of_requesters 	1
scalar Network400.node310 	number_of_resources 	22000
scalar Network400.node310 	time_period 	1
scalar Network400.node310 	number_of_messages 	35
scalar Network400.node310 	discovery_latency 	3108
scalar Network400.node310 	number_of_desired_resources 	20
scalar Network400.node310 	query_homogenity_rate 	33.333333333333
scalar Network400.node310 	qrecord_time 	7864
scalar Network400.node310 	discovery_resolution_rate 	33.333333333333
scalar Network400.node60 	rate_of_requesters 	1
scalar Network400.node60 	number_of_resources 	22000
scalar Network400.node60 	time_period 	1
scalar Network400.node60 	number_of_messages 	129
scalar Network400.node60 	discovery_latency 	3132
scalar Network400.node60 	number_of_desired_resources 	20
scalar Network400.node60 	query_homogenity_rate 	33.333333333333
scalar Network400.node60 	qrecord_time 	7864
scalar Network400.node60 	discovery_resolution_rate 	50
scalar Network400.node390 	rate_of_requesters 	1
scalar Network400.node390 	number_of_resources 	22000
scalar Network400.node390 	time_period 	1
scalar Network400.node390 	number_of_messages 	2
scalar Network400.node390 	discovery_latency 	3036
scalar Network400.node390 	number_of_desired_resources 	20
scalar Network400.node390 	query_homogenity_rate 	33.333333333333
scalar Network400.node390 	qrecord_time 	7870
scalar Network400.node390 	discovery_resolution_rate 	0
scalar Network400.node130 	rate_of_requesters 	1
scalar Network400.node130 	number_of_resources 	22000
scalar Network400.node130 	time_period 	1
scalar Network400.node130 	number_of_messages 	16
scalar Network400.node130 	discovery_latency 	3144
scalar Network400.node130 	number_of_desired_resources 	20
scalar Network400.node130 	query_homogenity_rate 	33.333333333333
scalar Network400.node130 	qrecord_time 	7882
scalar Network400.node130 	discovery_resolution_rate 	33.333333333333
scalar Network400.node120 	rate_of_requesters 	1
scalar Network400.node120 	number_of_resources 	22000
scalar Network400.node120 	time_period 	2
scalar Network400.node120 	number_of_messages 	6
scalar Network400.node120 	discovery_latency 	2940
scalar Network400.node120 	number_of_desired_resources 	20
scalar Network400.node120 	query_homogenity_rate 	33.333333333333
scalar Network400.node120 	qrecord_time 	7930.371459256
scalar Network400.node120 	discovery_resolution_rate 	33.333333333333
scalar Network400.node150 	rate_of_requesters 	1
scalar Network400.node150 	number_of_resources 	22000
scalar Network400.node150 	time_period 	2
scalar Network400.node150 	number_of_messages 	2
scalar Network400.node150 	discovery_latency 	3084
scalar Network400.node150 	number_of_desired_resources 	20
scalar Network400.node150 	query_homogenity_rate 	33.333333333333
scalar Network400.node150 	qrecord_time 	7984.355757714
scalar Network400.node150 	discovery_resolution_rate 	0
scalar Network400.node290 	rate_of_requesters 	1
scalar Network400.node290 	number_of_resources 	22000
scalar Network400.node290 	time_period 	2
scalar Network400.node290 	number_of_messages 	21
scalar Network400.node290 	discovery_latency 	3048
scalar Network400.node290 	number_of_desired_resources 	20
scalar Network400.node290 	query_homogenity_rate 	33.333333333333
scalar Network400.node290 	qrecord_time 	8010.618254568
scalar Network400.node290 	discovery_resolution_rate 	33.333333333333
scalar Network400.node290 	rate_of_requesters 	1
scalar Network400.node290 	number_of_resources 	22000
scalar Network400.node290 	time_period 	4
scalar Network400.node290 	number_of_messages 	26
scalar Network400.node290 	discovery_latency 	192
scalar Network400.node290 	number_of_desired_resources 	20
scalar Network400.node290 	query_homogenity_rate 	33.333333333333
scalar Network400.node290 	qrecord_time 	8039.48298809
scalar Network400.node290 	discovery_resolution_rate 	100
scalar Network400.node10 	rate_of_requesters 	1
scalar Network400.node10 	number_of_resources 	22000
scalar Network400.node10 	time_period 	3
scalar Network400.node10 	number_of_messages 	2
scalar Network400.node10 	discovery_latency 	3012
scalar Network400.node10 	number_of_desired_resources 	20
scalar Network400.node10 	query_homogenity_rate 	33.333333333333
scalar Network400.node10 	qrecord_time 	8249.646300227
scalar Network400.node10 	discovery_resolution_rate 	0
scalar Network400.node70 	rate_of_requesters 	1
scalar Network400.node70 	number_of_resources 	22000
scalar Network400.node70 	time_period 	2
scalar Network400.node70 	number_of_messages 	2
scalar Network400.node70 	discovery_latency 	3060
scalar Network400.node70 	number_of_desired_resources 	20
scalar Network400.node70 	query_homogenity_rate 	33.333333333333
scalar Network400.node70 	qrecord_time 	8267.374966316
scalar Network400.node70 	discovery_resolution_rate 	0
scalar Network400.node360 	rate_of_requesters 	1
scalar Network400.node360 	number_of_resources 	22000
scalar Network400.node360 	time_period 	2
scalar Network400.node360 	number_of_messages 	2
scalar Network400.node360 	discovery_latency 	3024
scalar Network400.node360 	number_of_desired_resources 	20
scalar Network400.node360 	query_homogenity_rate 	33.333333333333
scalar Network400.node360 	qrecord_time 	8280.21898382
scalar Network400.node360 	discovery_resolution_rate 	0
scalar Network400.node10 	rate_of_requesters 	1
scalar Network400.node10 	number_of_resources 	22000
scalar Network400.node10 	time_period 	2
scalar Network400.node10 	number_of_messages 	2
scalar Network400.node10 	discovery_latency 	3060
scalar Network400.node10 	number_of_desired_resources 	20
scalar Network400.node10 	query_homogenity_rate 	33.333333333333
scalar Network400.node10 	qrecord_time 	8282.343358015
scalar Network400.node10 	discovery_resolution_rate 	0
scalar Network400.node360 	rate_of_requesters 	1
scalar Network400.node360 	number_of_resources 	22000
scalar Network400.node360 	time_period 	3
scalar Network400.node360 	number_of_messages 	38
scalar Network400.node360 	discovery_latency 	2880
scalar Network400.node360 	number_of_desired_resources 	20
scalar Network400.node360 	query_homogenity_rate 	33.333333333333
scalar Network400.node360 	qrecord_time 	8529.510317161
scalar Network400.node360 	discovery_resolution_rate 	33.333333333333
scalar Network400.node40 	rate_of_requesters 	1
scalar Network400.node40 	number_of_resources 	22000
scalar Network400.node40 	time_period 	2
scalar Network400.node40 	number_of_messages 	2
scalar Network400.node40 	discovery_latency 	3024
scalar Network400.node40 	number_of_desired_resources 	20
scalar Network400.node40 	query_homogenity_rate 	33.333333333333
scalar Network400.node40 	qrecord_time 	8612.183094396
scalar Network400.node40 	discovery_resolution_rate 	0
scalar Network400.node260 	rate_of_requesters 	1
scalar Network400.node260 	number_of_resources 	22000
scalar Network400.node260 	time_period 	2
scalar Network400.node260 	number_of_messages 	2
scalar Network400.node260 	discovery_latency 	2880
scalar Network400.node260 	number_of_desired_resources 	20
scalar Network400.node260 	query_homogenity_rate 	33.333333333333
scalar Network400.node260 	qrecord_time 	8639.823393443
scalar Network400.node260 	discovery_resolution_rate 	0
scalar Network400.node10 	rate_of_requesters 	1
scalar Network400.node10 	number_of_resources 	22000
scalar Network400.node10 	time_period 	4
scalar Network400.node10 	number_of_messages 	20
scalar Network400.node10 	discovery_latency 	2586
scalar Network400.node10 	number_of_desired_resources 	20
scalar Network400.node10 	query_homogenity_rate 	33.333333333333
scalar Network400.node10 	qrecord_time 	8706.494808918
scalar Network400.node10 	discovery_resolution_rate 	66.666666666667
scalar Network400.node130 	rate_of_requesters 	1
scalar Network400.node130 	number_of_resources 	22000
scalar Network400.node130 	time_period 	2
scalar Network400.node130 	number_of_messages 	2
scalar Network400.node130 	discovery_latency 	2964
scalar Network400.node130 	number_of_desired_resources 	20
scalar Network400.node130 	query_homogenity_rate 	33.333333333333
scalar Network400.node130 	qrecord_time 	8708.89171328
scalar Network400.node130 	discovery_resolution_rate 	0
scalar Network400.node230 	rate_of_requesters 	1
scalar Network400.node230 	number_of_resources 	22000
scalar Network400.node230 	time_period 	2
scalar Network400.node230 	number_of_messages 	2
scalar Network400.node230 	discovery_latency 	3084
scalar Network400.node230 	number_of_desired_resources 	20
scalar Network400.node230 	query_homogenity_rate 	33.333333333333
scalar Network400.node230 	qrecord_time 	8825.509537522
scalar Network400.node230 	discovery_resolution_rate 	0
scalar Network400.node370 	rate_of_requesters 	1
scalar Network400.node370 	number_of_resources 	22000
scalar Network400.node370 	time_period 	2
scalar Network400.node370 	number_of_messages 	2
scalar Network400.node370 	discovery_latency 	3084
scalar Network400.node370 	number_of_desired_resources 	20
scalar Network400.node370 	query_homogenity_rate 	33.333333333333
scalar Network400.node370 	qrecord_time 	8855.851681466
scalar Network400.node370 	discovery_resolution_rate 	0
scalar Network400.node60 	rate_of_requesters 	1
scalar Network400.node60 	number_of_resources 	22000
scalar Network400.node60 	time_period 	2
scalar Network400.node60 	number_of_messages 	148
scalar Network400.node60 	discovery_latency 	2376
scalar Network400.node60 	number_of_desired_resources 	20
scalar Network400.node60 	query_homogenity_rate 	33.333333333333
scalar Network400.node60 	qrecord_time 	9146.069684204
scalar Network400.node60 	discovery_resolution_rate 	83.333333333333
scalar Network400.node390 	rate_of_requesters 	1
scalar Network400.node390 	number_of_resources 	22000
scalar Network400.node390 	time_period 	2
scalar Network400.node390 	number_of_messages 	2
scalar Network400.node390 	discovery_latency 	2892
scalar Network400.node390 	number_of_desired_resources 	20
scalar Network400.node390 	query_homogenity_rate 	33.333333333333
scalar Network400.node390 	qrecord_time 	9148.194553447
scalar Network400.node390 	discovery_resolution_rate 	0
scalar Network400.node140 	rate_of_requesters 	1
scalar Network400.node140 	number_of_resources 	22000
scalar Network400.node140 	time_period 	2
scalar Network400.node140 	number_of_messages 	0
scalar Network400.node140 	discovery_latency 	3012
scalar Network400.node140 	number_of_desired_resources 	20
scalar Network400.node140 	query_homogenity_rate 	33.333333333333
scalar Network400.node140 	qrecord_time 	9171.054513258
scalar Network400.node140 	discovery_resolution_rate 	0
scalar Network400.node190 	rate_of_requesters 	1
scalar Network400.node190 	number_of_resources 	22000
scalar Network400.node190 	time_period 	2
scalar Network400.node190 	number_of_messages 	2
scalar Network400.node190 	discovery_latency 	3000
scalar Network400.node190 	number_of_desired_resources 	20
scalar Network400.node190 	query_homogenity_rate 	33.333333333333
scalar Network400.node190 	qrecord_time 	9386.692865394
scalar Network400.node190 	discovery_resolution_rate 	0
scalar Network400.node320 	rate_of_requesters 	1
scalar Network400.node320 	number_of_resources 	22000
scalar Network400.node320 	time_period 	2
scalar Network400.node320 	number_of_messages 	64
scalar Network400.node320 	discovery_latency 	504
scalar Network400.node320 	number_of_desired_resources 	20
scalar Network400.node320 	query_homogenity_rate 	33.333333333333
scalar Network400.node320 	qrecord_time 	9426.524797305
scalar Network400.node320 	discovery_resolution_rate 	100
scalar Network400.node280 	rate_of_requesters 	1
scalar Network400.node280 	number_of_resources 	22000
scalar Network400.node280 	time_period 	2
scalar Network400.node280 	number_of_messages 	2
scalar Network400.node280 	discovery_latency 	2892
scalar Network400.node280 	number_of_desired_resources 	20
scalar Network400.node280 	query_homogenity_rate 	33.333333333333
scalar Network400.node280 	qrecord_time 	9447.458970751
scalar Network400.node280 	discovery_resolution_rate 	0
scalar Network400.node370 	rate_of_requesters 	1
scalar Network400.node370 	number_of_resources 	22000
scalar Network400.node370 	time_period 	3
scalar Network400.node370 	number_of_messages 	2
scalar Network400.node370 	discovery_latency 	2952
scalar Network400.node370 	number_of_desired_resources 	20
scalar Network400.node370 	query_homogenity_rate 	33.333333333333
scalar Network400.node370 	qrecord_time 	9461.639346741
scalar Network400.node370 	discovery_resolution_rate 	0
scalar Network400.node290 	rate_of_requesters 	1
scalar Network400.node290 	number_of_resources 	22000
scalar Network400.node290 	time_period 	3
scalar Network400.node290 	number_of_messages 	2
scalar Network400.node290 	discovery_latency 	2964
scalar Network400.node290 	number_of_desired_resources 	20
scalar Network400.node290 	query_homogenity_rate 	33.333333333333
scalar Network400.node290 	qrecord_time 	9540.921860573
scalar Network400.node290 	discovery_resolution_rate 	0
scalar Network400.node40 	rate_of_requesters 	1
scalar Network400.node40 	number_of_resources 	22000
scalar Network400.node40 	time_period 	3
scalar Network400.node40 	number_of_messages 	124
scalar Network400.node40 	discovery_latency 	2904
scalar Network400.node40 	number_of_desired_resources 	20
scalar Network400.node40 	query_homogenity_rate 	33.333333333333
scalar Network400.node40 	qrecord_time 	9605.808286987
scalar Network400.node40 	discovery_resolution_rate 	16.666666666667
scalar Network400.node50 	rate_of_requesters 	1
scalar Network400.node50 	number_of_resources 	22000
scalar Network400.node50 	time_period 	3
scalar Network400.node50 	number_of_messages 	64
scalar Network400.node50 	discovery_latency 	2304
scalar Network400.node50 	number_of_desired_resources 	20
scalar Network400.node50 	query_homogenity_rate 	33.333333333333
scalar Network400.node50 	qrecord_time 	9627.996756912
scalar Network400.node50 	discovery_resolution_rate 	66.666666666667
scalar Network400.node360 	rate_of_requesters 	1
scalar Network400.node360 	number_of_resources 	22000
scalar Network400.node360 	time_period 	4
scalar Network400.node360 	number_of_messages 	12
scalar Network400.node360 	discovery_latency 	2622
scalar Network400.node360 	number_of_desired_resources 	20
scalar Network400.node360 	query_homogenity_rate 	33.333333333333
scalar Network400.node360 	qrecord_time 	9695.370623534
scalar Network400.node360 	discovery_resolution_rate 	33.333333333333
scalar Network400.node260 	rate_of_requesters 	1
scalar Network400.node260 	number_of_resources 	22000
scalar Network400.node260 	time_period 	4
scalar Network400.node260 	number_of_messages 	10
scalar Network400.node260 	discovery_latency 	2574
scalar Network400.node260 	number_of_desired_resources 	20
scalar Network400.node260 	query_homogenity_rate 	33.333333333333
scalar Network400.node260 	qrecord_time 	9713.738176563
scalar Network400.node260 	discovery_resolution_rate 	33.333333333333
scalar Network400.node30 	rate_of_requesters 	1
scalar Network400.node30 	number_of_resources 	22000
scalar Network400.node30 	time_period 	2
scalar Network400.node30 	number_of_messages 	21
scalar Network400.node30 	discovery_latency 	2868
scalar Network400.node30 	number_of_desired_resources 	20
scalar Network400.node30 	query_homogenity_rate 	33.333333333333
scalar Network400.node30 	qrecord_time 	9752.873157601
scalar Network400.node30 	discovery_resolution_rate 	33.333333333333
scalar Network400.node260 	rate_of_requesters 	1
scalar Network400.node260 	number_of_resources 	22000
scalar Network400.node260 	time_period 	3
scalar Network400.node260 	number_of_messages 	2
scalar Network400.node260 	discovery_latency 	2844
scalar Network400.node260 	number_of_desired_resources 	20
scalar Network400.node260 	query_homogenity_rate 	33.333333333333
scalar Network400.node260 	qrecord_time 	9933.578945881
scalar Network400.node260 	discovery_resolution_rate 	0
scalar Network400.node90 	rate_of_requesters 	1
scalar Network400.node90 	number_of_resources 	22000
scalar Network400.node90 	time_period 	3
scalar Network400.node90 	number_of_messages 	65
scalar Network400.node90 	discovery_latency 	726
scalar Network400.node90 	number_of_desired_resources 	20
scalar Network400.node90 	query_homogenity_rate 	33.333333333333
scalar Network400.node90 	qrecord_time 	9977.430001537
scalar Network400.node90 	discovery_resolution_rate 	100
scalar Network400.node90 	rate_of_requesters 	1
scalar Network400.node90 	number_of_resources 	22000
scalar Network400.node90 	time_period 	2
scalar Network400.node90 	number_of_messages 	161
scalar Network400.node90 	discovery_latency 	2868
scalar Network400.node90 	number_of_desired_resources 	20
scalar Network400.node90 	query_homogenity_rate 	33.333333333333
scalar Network400.node90 	qrecord_time 	10014.706274404
scalar Network400.node90 	discovery_resolution_rate 	50
scalar Network400.node40 	rate_of_requesters 	1
scalar Network400.node40 	number_of_resources 	22000
scalar Network400.node40 	time_period 	4
scalar Network400.node40 	number_of_messages 	2
scalar Network400.node40 	discovery_latency 	2880
scalar Network400.node40 	number_of_desired_resources 	20
scalar Network400.node40 	query_homogenity_rate 	33.333333333333
scalar Network400.node40 	qrecord_time 	10043.024084309
scalar Network400.node40 	discovery_resolution_rate 	0
scalar Network400.node50 	rate_of_requesters 	1
scalar Network400.node50 	number_of_resources 	22000
scalar Network400.node50 	time_period 	2
scalar Network400.node50 	number_of_messages 	8
scalar Network400.node50 	discovery_latency 	2916
scalar Network400.node50 	number_of_desired_resources 	20
scalar Network400.node50 	query_homogenity_rate 	33.333333333333
scalar Network400.node50 	qrecord_time 	10098.857152691
scalar Network400.node50 	discovery_resolution_rate 	33.333333333333
scalar Network400.node180 	rate_of_requesters 	1
scalar Network400.node180 	number_of_resources 	22000
scalar Network400.node180 	time_period 	6
scalar Network400.node180 	number_of_messages 	52
scalar Network400.node180 	discovery_latency 	444
scalar Network400.node180 	number_of_desired_resources 	20
scalar Network400.node180 	query_homogenity_rate 	33.333333333333
scalar Network400.node180 	qrecord_time 	10102.982167582
scalar Network400.node180 	discovery_resolution_rate 	100
scalar Network400.node220 	rate_of_requesters 	1
scalar Network400.node220 	number_of_resources 	22000
scalar Network400.node220 	time_period 	2
scalar Network400.node220 	number_of_messages 	165
scalar Network400.node220 	discovery_latency 	3012
scalar Network400.node220 	number_of_desired_resources 	20
scalar Network400.node220 	query_homogenity_rate 	33.333333333333
scalar Network400.node220 	qrecord_time 	10125.481272899
scalar Network400.node220 	discovery_resolution_rate 	50
scalar Network400.node260 	rate_of_requesters 	1
scalar Network400.node260 	number_of_resources 	22000
scalar Network400.node260 	time_period 	5
scalar Network400.node260 	number_of_messages 	2
scalar Network400.node260 	discovery_latency 	2892
scalar Network400.node260 	number_of_desired_resources 	20
scalar Network400.node260 	query_homogenity_rate 	33.333333333333
scalar Network400.node260 	qrecord_time 	10165.787603797
scalar Network400.node260 	discovery_resolution_rate 	0
scalar Network400.node160 	rate_of_requesters 	1
scalar Network400.node160 	number_of_resources 	22000
scalar Network400.node160 	time_period 	2
scalar Network400.node160 	number_of_messages 	2
scalar Network400.node160 	discovery_latency 	2832
scalar Network400.node160 	number_of_desired_resources 	20
scalar Network400.node160 	query_homogenity_rate 	33.333333333333
scalar Network400.node160 	qrecord_time 	10470.06470266
scalar Network400.node160 	discovery_resolution_rate 	0
scalar Network400.node220 	rate_of_requesters 	1
scalar Network400.node220 	number_of_resources 	22000
scalar Network400.node220 	time_period 	3
scalar Network400.node220 	number_of_messages 	2
scalar Network400.node220 	discovery_latency 	2916
scalar Network400.node220 	number_of_desired_resources 	20
scalar Network400.node220 	query_homogenity_rate 	33.333333333333
scalar Network400.node220 	qrecord_time 	10500.898942673
scalar Network400.node220 	discovery_resolution_rate 	0
scalar Network400.node70 	rate_of_requesters 	1
scalar Network400.node70 	number_of_resources 	22000
scalar Network400.node70 	time_period 	3
scalar Network400.node70 	number_of_messages 	99
scalar Network400.node70 	discovery_latency 	882
scalar Network400.node70 	number_of_desired_resources 	20
scalar Network400.node70 	query_homogenity_rate 	33.333333333333
scalar Network400.node70 	qrecord_time 	10557.36198235
scalar Network400.node70 	discovery_resolution_rate 	100
scalar Network400.node250 	rate_of_requesters 	1
scalar Network400.node250 	number_of_resources 	22000
scalar Network400.node250 	time_period 	3
scalar Network400.node250 	number_of_messages 	71
scalar Network400.node250 	discovery_latency 	528
scalar Network400.node250 	number_of_desired_resources 	20
scalar Network400.node250 	query_homogenity_rate 	33.333333333333
scalar Network400.node250 	qrecord_time 	10565.444808
scalar Network400.node250 	discovery_resolution_rate 	100
scalar Network400.node150 	rate_of_requesters 	1
scalar Network400.node150 	number_of_resources 	22000
scalar Network400.node150 	time_period 	3
scalar Network400.node150 	number_of_messages 	30
scalar Network400.node150 	discovery_latency 	276
scalar Network400.node150 	number_of_desired_resources 	20
scalar Network400.node150 	query_homogenity_rate 	33.333333333333
scalar Network400.node150 	qrecord_time 	10589.598377402
scalar Network400.node150 	discovery_resolution_rate 	100
scalar Network400.node250 	rate_of_requesters 	1
scalar Network400.node250 	number_of_resources 	22000
scalar Network400.node250 	time_period 	4
scalar Network400.node250 	number_of_messages 	61
scalar Network400.node250 	discovery_latency 	516
scalar Network400.node250 	number_of_desired_resources 	20
scalar Network400.node250 	query_homogenity_rate 	33.333333333333
scalar Network400.node250 	qrecord_time 	10658.453775922
scalar Network400.node250 	discovery_resolution_rate 	100
scalar Network400.node120 	rate_of_requesters 	1
scalar Network400.node120 	number_of_resources 	22000
scalar Network400.node120 	time_period 	3
scalar Network400.node120 	number_of_messages 	0
scalar Network400.node120 	discovery_latency 	2976
scalar Network400.node120 	number_of_desired_resources 	20
scalar Network400.node120 	query_homogenity_rate 	33.333333333333
scalar Network400.node120 	qrecord_time 	10692.166238499
scalar Network400.node120 	discovery_resolution_rate 	0
scalar Network400.node310 	rate_of_requesters 	1
scalar Network400.node310 	number_of_resources 	22000
scalar Network400.node310 	time_period 	4
scalar Network400.node310 	number_of_messages 	35
scalar Network400.node310 	discovery_latency 	384
scalar Network400.node310 	number_of_desired_resources 	20
scalar Network400.node310 	query_homogenity_rate 	33.333333333333
scalar Network400.node310 	qrecord_time 	10755.17790294
scalar Network400.node310 	discovery_resolution_rate 	100
scalar Network400.node210 	rate_of_requesters 	1
scalar Network400.node210 	number_of_resources 	22000
scalar Network400.node210 	time_period 	2
scalar Network400.node210 	number_of_messages 	16
scalar Network400.node210 	discovery_latency 	2880
scalar Network400.node210 	number_of_desired_resources 	20
scalar Network400.node210 	query_homogenity_rate 	33.333333333333
scalar Network400.node210 	qrecord_time 	10946.874952202
scalar Network400.node210 	discovery_resolution_rate 	33.333333333333
scalar Network400.node20 	rate_of_requesters 	1
scalar Network400.node20 	number_of_resources 	22000
scalar Network400.node20 	time_period 	3
scalar Network400.node20 	number_of_messages 	35
scalar Network400.node20 	discovery_latency 	2544
scalar Network400.node20 	number_of_desired_resources 	20
scalar Network400.node20 	query_homogenity_rate 	33.333333333333
scalar Network400.node20 	qrecord_time 	11049.282803287
scalar Network400.node20 	discovery_resolution_rate 	66.666666666667
scalar Network400.node390 	rate_of_requesters 	1
scalar Network400.node390 	number_of_resources 	22000
scalar Network400.node390 	time_period 	3
scalar Network400.node390 	number_of_messages 	36
scalar Network400.node390 	discovery_latency 	324
scalar Network400.node390 	number_of_desired_resources 	20
scalar Network400.node390 	query_homogenity_rate 	33.333333333333
scalar Network400.node390 	qrecord_time 	11154.661457604
scalar Network400.node390 	discovery_resolution_rate 	100
scalar Network400.node120 	rate_of_requesters 	1
scalar Network400.node120 	number_of_resources 	22000
scalar Network400.node120 	time_period 	4
scalar Network400.node120 	number_of_messages 	40
scalar Network400.node120 	discovery_latency 	2484
scalar Network400.node120 	number_of_desired_resources 	20
scalar Network400.node120 	query_homogenity_rate 	33.333333333333
scalar Network400.node120 	qrecord_time 	11223.709462842
scalar Network400.node120 	discovery_resolution_rate 	66.666666666667
scalar Network400.node180 	rate_of_requesters 	1
scalar Network400.node180 	number_of_resources 	22000
scalar Network400.node180 	time_period 	7
scalar Network400.node180 	number_of_messages 	64
scalar Network400.node180 	discovery_latency 	606
scalar Network400.node180 	number_of_desired_resources 	20
scalar Network400.node180 	query_homogenity_rate 	33.333333333333
scalar Network400.node180 	qrecord_time 	11262.10508177
scalar Network400.node180 	discovery_resolution_rate 	100
scalar Network400.node350 	rate_of_requesters 	1
scalar Network400.node350 	number_of_resources 	22000
scalar Network400.node350 	time_period 	2
scalar Network400.node350 	number_of_messages 	132
scalar Network400.node350 	discovery_latency 	2844
scalar Network400.node350 	number_of_desired_resources 	20
scalar Network400.node350 	query_homogenity_rate 	33.333333333333
scalar Network400.node350 	qrecord_time 	11278.511562942
scalar Network400.node350 	discovery_resolution_rate 	50
scalar Network400.node360 	rate_of_requesters 	1
scalar Network400.node360 	number_of_resources 	22000
scalar Network400.node360 	time_period 	5
scalar Network400.node360 	number_of_messages 	30
scalar Network400.node360 	discovery_latency 	2514
scalar Network400.node360 	number_of_desired_resources 	20
scalar Network400.node360 	query_homogenity_rate 	33.333333333333
scalar Network400.node360 	qrecord_time 	11289.578460462
scalar Network400.node360 	discovery_resolution_rate 	66.666666666667
scalar Network400.node250 	rate_of_requesters 	1
scalar Network400.node250 	number_of_resources 	22000
scalar Network400.node250 	time_period 	2
scalar Network400.node250 	number_of_messages 	19
scalar Network400.node250 	discovery_latency 	3000
scalar Network400.node250 	number_of_desired_resources 	20
scalar Network400.node250 	query_homogenity_rate 	33.333333333333
scalar Network400.node250 	qrecord_time 	11307.544815409
scalar Network400.node250 	discovery_resolution_rate 	33.333333333333
scalar Network400.node290 	rate_of_requesters 	1
scalar Network400.node290 	number_of_resources 	22000
scalar Network400.node290 	time_period 	5
scalar Network400.node290 	number_of_messages 	47
scalar Network400.node290 	discovery_latency 	432
scalar Network400.node290 	number_of_desired_resources 	20
scalar Network400.node290 	query_homogenity_rate 	33.333333333333
scalar Network400.node290 	qrecord_time 	11413.741085694
scalar Network400.node290 	discovery_resolution_rate 	100
scalar Network400.node330 	rate_of_requesters 	1
scalar Network400.node330 	number_of_resources 	22000
scalar Network400.node330 	time_period 	2
scalar Network400.node330 	number_of_messages 	185
scalar Network400.node330 	discovery_latency 	3060
scalar Network400.node330 	number_of_desired_resources 	20
scalar Network400.node330 	query_homogenity_rate 	33.333333333333
scalar Network400.node330 	qrecord_time 	11449.112013993
scalar Network400.node330 	discovery_resolution_rate 	83.333333333333
scalar Network400.node280 	rate_of_requesters 	1
scalar Network400.node280 	number_of_resources 	22000
scalar Network400.node280 	time_period 	3
scalar Network400.node280 	number_of_messages 	2
scalar Network400.node280 	discovery_latency 	2952
scalar Network400.node280 	number_of_desired_resources 	20
scalar Network400.node280 	query_homogenity_rate 	33.333333333333
scalar Network400.node280 	qrecord_time 	11527.415454626
scalar Network400.node280 	discovery_resolution_rate 	0
scalar Network400.node60 	rate_of_requesters 	1
scalar Network400.node60 	number_of_resources 	22000
scalar Network400.node60 	time_period 	3
scalar Network400.node60 	number_of_messages 	53
scalar Network400.node60 	discovery_latency 	402
scalar Network400.node60 	number_of_desired_resources 	20
scalar Network400.node60 	query_homogenity_rate 	33.333333333333
scalar Network400.node60 	qrecord_time 	11702.802566522
scalar Network400.node60 	discovery_resolution_rate 	100
scalar Network400.node360 	rate_of_requesters 	1
scalar Network400.node360 	number_of_resources 	22000
scalar Network400.node360 	time_period 	6
scalar Network400.node360 	number_of_messages 	97
scalar Network400.node360 	discovery_latency 	2484
scalar Network400.node360 	number_of_desired_resources 	20
scalar Network400.node360 	query_homogenity_rate 	33.333333333333
scalar Network400.node360 	qrecord_time 	11803.592608474
scalar Network400.node360 	discovery_resolution_rate 	66.666666666667
scalar Network400.node180 	rate_of_requesters 	1
scalar Network400.node180 	number_of_resources 	22000
scalar Network400.node180 	time_period 	4
scalar Network400.node180 	number_of_messages 	2
scalar Network400.node180 	discovery_latency 	3048
scalar Network400.node180 	number_of_desired_resources 	20
scalar Network400.node180 	query_homogenity_rate 	33.333333333333
scalar Network400.node180 	qrecord_time 	11881.765973501
scalar Network400.node180 	discovery_resolution_rate 	0
scalar Network400.node180 	rate_of_requesters 	1
scalar Network400.node180 	number_of_resources 	22000
scalar Network400.node180 	time_period 	5
scalar Network400.node180 	number_of_messages 	32
scalar Network400.node180 	discovery_latency 	3048
scalar Network400.node180 	number_of_desired_resources 	20
scalar Network400.node180 	query_homogenity_rate 	33.333333333333
scalar Network400.node180 	qrecord_time 	11934.683722576
scalar Network400.node180 	discovery_resolution_rate 	33.333333333333
scalar Network400.node110 	rate_of_requesters 	1
scalar Network400.node110 	number_of_resources 	22000
scalar Network400.node110 	time_period 	2
scalar Network400.node110 	number_of_messages 	153
scalar Network400.node110 	discovery_latency 	2988
scalar Network400.node110 	number_of_desired_resources 	20
scalar Network400.node110 	query_homogenity_rate 	33.333333333333
scalar Network400.node110 	qrecord_time 	12023.798679381
scalar Network400.node110 	discovery_resolution_rate 	16.666666666667
scalar Network400.node20 	rate_of_requesters 	1
scalar Network400.node20 	number_of_resources 	22000
scalar Network400.node20 	time_period 	4
scalar Network400.node20 	number_of_messages 	2
scalar Network400.node20 	discovery_latency 	2940
scalar Network400.node20 	number_of_desired_resources 	20
scalar Network400.node20 	query_homogenity_rate 	33.333333333333
scalar Network400.node20 	qrecord_time 	12057.60813483
scalar Network400.node20 	discovery_resolution_rate 	0
scalar Network400.node370 	rate_of_requesters 	1
scalar Network400.node370 	number_of_resources 	22000
scalar Network400.node370 	time_period 	4
scalar Network400.node370 	number_of_messages 	15
scalar Network400.node370 	discovery_latency 	3024
scalar Network400.node370 	number_of_desired_resources 	20
scalar Network400.node370 	query_homogenity_rate 	33.333333333333
scalar Network400.node370 	qrecord_time 	12058.890904617
scalar Network400.node370 	discovery_resolution_rate 	33.333333333333
scalar Network400.node280 	rate_of_requesters 	1
scalar Network400.node280 	number_of_resources 	22000
scalar Network400.node280 	time_period 	4
scalar Network400.node280 	number_of_messages 	41
scalar Network400.node280 	discovery_latency 	2976
scalar Network400.node280 	number_of_desired_resources 	20
scalar Network400.node280 	query_homogenity_rate 	33.333333333333
scalar Network400.node280 	qrecord_time 	12098.259228696
scalar Network400.node280 	discovery_resolution_rate 	33.333333333333
scalar Network400.node280 	rate_of_requesters 	1
scalar Network400.node280 	number_of_resources 	22000
scalar Network400.node280 	time_period 	5
scalar Network400.node280 	number_of_messages 	2
scalar Network400.node280 	discovery_latency 	2988
scalar Network400.node280 	number_of_desired_resources 	20
scalar Network400.node280 	query_homogenity_rate 	33.333333333333
scalar Network400.node280 	qrecord_time 	12210.586334861
scalar Network400.node280 	discovery_resolution_rate 	0
scalar Network400.node340 	rate_of_requesters 	1
scalar Network400.node340 	number_of_resources 	22000
scalar Network400.node340 	time_period 	2
scalar Network400.node340 	number_of_messages 	249
scalar Network400.node340 	discovery_latency 	2952
scalar Network400.node340 	number_of_desired_resources 	20
scalar Network400.node340 	query_homogenity_rate 	33.333333333333
scalar Network400.node340 	qrecord_time 	12267.36945491
scalar Network400.node340 	discovery_resolution_rate 	33.333333333333
scalar Network400.node310 	rate_of_requesters 	1
scalar Network400.node310 	number_of_resources 	22000
scalar Network400.node310 	time_period 	3
scalar Network400.node310 	number_of_messages 	147
scalar Network400.node310 	discovery_latency 	2436
scalar Network400.node310 	number_of_desired_resources 	20
scalar Network400.node310 	query_homogenity_rate 	33.333333333333
scalar Network400.node310 	qrecord_time 	12342.874925111
scalar Network400.node310 	discovery_resolution_rate 	83.333333333333
scalar Network400.node350 	rate_of_requesters 	1
scalar Network400.node350 	number_of_resources 	22000
scalar Network400.node350 	time_period 	3
scalar Network400.node350 	number_of_messages 	144
scalar Network400.node350 	discovery_latency 	2976
scalar Network400.node350 	number_of_desired_resources 	20
scalar Network400.node350 	query_homogenity_rate 	33.333333333333
scalar Network400.node350 	qrecord_time 	12471.313469631
scalar Network400.node350 	discovery_resolution_rate 	50
scalar Network400.node260 	rate_of_requesters 	1
scalar Network400.node260 	number_of_resources 	22000
scalar Network400.node260 	time_period 	7
scalar Network400.node260 	number_of_messages 	48
scalar Network400.node260 	discovery_latency 	366
scalar Network400.node260 	number_of_desired_resources 	20
scalar Network400.node260 	query_homogenity_rate 	33.333333333333
scalar Network400.node260 	qrecord_time 	12925.003864045
scalar Network400.node260 	discovery_resolution_rate 	100
scalar Network400.node30 	rate_of_requesters 	1
scalar Network400.node30 	number_of_resources 	22000
scalar Network400.node30 	time_period 	3
scalar Network400.node30 	number_of_messages 	43
scalar Network400.node30 	discovery_latency 	420
scalar Network400.node30 	number_of_desired_resources 	20
scalar Network400.node30 	query_homogenity_rate 	33.333333333333
scalar Network400.node30 	qrecord_time 	13163.644364279
scalar Network400.node30 	discovery_resolution_rate 	100
scalar Network400.node20 	rate_of_requesters 	1
scalar Network400.node20 	number_of_resources 	22000
scalar Network400.node20 	time_period 	5
scalar Network400.node20 	number_of_messages 	30
scalar Network400.node20 	discovery_latency 	2634
scalar Network400.node20 	number_of_desired_resources 	20
scalar Network400.node20 	query_homogenity_rate 	33.333333333333
scalar Network400.node20 	qrecord_time 	13217.038738002
scalar Network400.node20 	discovery_resolution_rate 	66.666666666667
scalar Network400.node330 	rate_of_requesters 	1
scalar Network400.node330 	number_of_resources 	22000
scalar Network400.node330 	time_period 	3
scalar Network400.node330 	number_of_messages 	44
scalar Network400.node330 	discovery_latency 	2610
scalar Network400.node330 	number_of_desired_resources 	20
scalar Network400.node330 	query_homogenity_rate 	33.333333333333
scalar Network400.node330 	qrecord_time 	13273.185286948
scalar Network400.node330 	discovery_resolution_rate 	66.666666666667
scalar Network400.node160 	rate_of_requesters 	1
scalar Network400.node160 	number_of_resources 	22000
scalar Network400.node160 	time_period 	3
scalar Network400.node160 	number_of_messages 	39
scalar Network400.node160 	discovery_latency 	462
scalar Network400.node160 	number_of_desired_resources 	20
scalar Network400.node160 	query_homogenity_rate 	33.333333333333
scalar Network400.node160 	qrecord_time 	13498.51188496
scalar Network400.node160 	discovery_resolution_rate 	100
scalar Network400.node30 	rate_of_requesters 	1
scalar Network400.node30 	number_of_resources 	22000
scalar Network400.node30 	time_period 	4
scalar Network400.node30 	number_of_messages 	60
scalar Network400.node30 	discovery_latency 	528
scalar Network400.node30 	number_of_desired_resources 	20
scalar Network400.node30 	query_homogenity_rate 	33.333333333333
scalar Network400.node30 	qrecord_time 	13663.868053552
scalar Network400.node30 	discovery_resolution_rate 	100
scalar Network400.node360 	rate_of_requesters 	1
scalar Network400.node360 	number_of_resources 	22000
scalar Network400.node360 	time_period 	7
scalar Network400.node360 	number_of_messages 	137
scalar Network400.node360 	discovery_latency 	2538
scalar Network400.node360 	number_of_desired_resources 	20
scalar Network400.node360 	query_homogenity_rate 	33.333333333333
scalar Network400.node360 	qrecord_time 	13717.878466914
scalar Network400.node360 	discovery_resolution_rate 	50
scalar Network400.node20 	rate_of_requesters 	1
scalar Network400.node20 	number_of_resources 	22000
scalar Network400.node20 	time_period 	6
scalar Network400.node20 	number_of_messages 	164
scalar Network400.node20 	discovery_latency 	2622
scalar Network400.node20 	number_of_desired_resources 	20
scalar Network400.node20 	query_homogenity_rate 	33.333333333333
scalar Network400.node20 	qrecord_time 	13771.04754509
scalar Network400.node20 	discovery_resolution_rate 	83.333333333333
scalar Network400.node130 	rate_of_requesters 	1
scalar Network400.node130 	number_of_resources 	22000
scalar Network400.node130 	time_period 	3
scalar Network400.node130 	number_of_messages 	16
scalar Network400.node130 	discovery_latency 	2598
scalar Network400.node130 	number_of_desired_resources 	20
scalar Network400.node130 	query_homogenity_rate 	33.333333333333
scalar Network400.node130 	qrecord_time 	13863.104937309
scalar Network400.node130 	discovery_resolution_rate 	33.333333333333
scalar Network400.node190 	rate_of_requesters 	1
scalar Network400.node190 	number_of_resources 	22000
scalar Network400.node190 	time_period 	3
scalar Network400.node190 	number_of_messages 	203
scalar Network400.node190 	discovery_latency 	2988
scalar Network400.node190 	number_of_desired_resources 	20
scalar Network400.node190 	query_homogenity_rate 	33.333333333333
scalar Network400.node190 	qrecord_time 	14013.633317087
scalar Network400.node190 	discovery_resolution_rate 	83.333333333333
scalar Network400.node200 	rate_of_requesters 	1
scalar Network400.node200 	number_of_resources 	22000
scalar Network400.node200 	time_period 	2
scalar Network400.node200 	number_of_messages 	178
scalar Network400.node200 	discovery_latency 	3000
scalar Network400.node200 	number_of_desired_resources 	20
scalar Network400.node200 	query_homogenity_rate 	33.333333333333
scalar Network400.node200 	qrecord_time 	14193.176430165
scalar Network400.node200 	discovery_resolution_rate 	50
scalar Network400.node350 	rate_of_requesters 	1
scalar Network400.node350 	number_of_resources 	22000
scalar Network400.node350 	time_period 	4
scalar Network400.node350 	number_of_messages 	55
scalar Network400.node350 	discovery_latency 	2520
scalar Network400.node350 	number_of_desired_resources 	20
scalar Network400.node350 	query_homogenity_rate 	33.333333333333
scalar Network400.node350 	qrecord_time 	14230.353528289
scalar Network400.node350 	discovery_resolution_rate 	66.666666666667
scalar Network400.node390 	rate_of_requesters 	1
scalar Network400.node390 	number_of_resources 	22000
scalar Network400.node390 	time_period 	4
scalar Network400.node390 	number_of_messages 	26
scalar Network400.node390 	discovery_latency 	2514
scalar Network400.node390 	number_of_desired_resources 	20
scalar Network400.node390 	query_homogenity_rate 	33.333333333333
scalar Network400.node390 	qrecord_time 	14367.838011192
scalar Network400.node390 	discovery_resolution_rate 	33.333333333333
scalar Network400.node80 	rate_of_requesters 	1
scalar Network400.node80 	number_of_resources 	22000
scalar Network400.node80 	time_period 	2
scalar Network400.node80 	number_of_messages 	204
scalar Network400.node80 	discovery_latency 	2940
scalar Network400.node80 	number_of_desired_resources 	20
scalar Network400.node80 	query_homogenity_rate 	33.333333333333
scalar Network400.node80 	qrecord_time 	14381.752261821
scalar Network400.node80 	discovery_resolution_rate 	83.333333333333
scalar Network400.node330 	rate_of_requesters 	1
scalar Network400.node330 	number_of_resources 	22000
scalar Network400.node330 	time_period 	4
scalar Network400.node330 	number_of_messages 	159
scalar Network400.node330 	discovery_latency 	2916
scalar Network400.node330 	number_of_desired_resources 	20
scalar Network400.node330 	query_homogenity_rate 	33.333333333333
scalar Network400.node330 	qrecord_time 	14639.569139575
scalar Network400.node330 	discovery_resolution_rate 	50
scalar Network400.node380 	rate_of_requesters 	1
scalar Network400.node380 	number_of_resources 	22000
scalar Network400.node380 	time_period 	2
scalar Network400.node380 	number_of_messages 	27
scalar Network400.node380 	discovery_latency 	3012
scalar Network400.node380 	number_of_desired_resources 	20
scalar Network400.node380 	query_homogenity_rate 	33.333333333333
scalar Network400.node380 	qrecord_time 	14807.296459284
scalar Network400.node380 	discovery_resolution_rate 	33.333333333333
scalar Network400.node40 	rate_of_requesters 	1
scalar Network400.node40 	number_of_resources 	22000
scalar Network400.node40 	time_period 	5
scalar Network400.node40 	number_of_messages 	11
scalar Network400.node40 	discovery_latency 	2976
scalar Network400.node40 	number_of_desired_resources 	20
scalar Network400.node40 	query_homogenity_rate 	33.333333333333
scalar Network400.node40 	qrecord_time 	14866.364379601
scalar Network400.node40 	discovery_resolution_rate 	33.333333333333
scalar Network400.node0 	rate_of_requesters 	1
scalar Network400.node0 	number_of_resources 	22000
scalar Network400.node0 	time_period 	2
scalar Network400.node0 	number_of_messages 	16
scalar Network400.node0 	discovery_latency 	3012
scalar Network400.node0 	number_of_desired_resources 	20
scalar Network400.node0 	query_homogenity_rate 	33.333333333333
scalar Network400.node0 	qrecord_time 	14947.969174201
scalar Network400.node0 	discovery_resolution_rate 	33.333333333333
scalar Network400.node260 	rate_of_requesters 	1
scalar Network400.node260 	number_of_resources 	22000
scalar Network400.node260 	time_period 	6
scalar Network400.node260 	number_of_messages 	50
scalar Network400.node260 	discovery_latency 	2940
scalar Network400.node260 	number_of_desired_resources 	20
scalar Network400.node260 	query_homogenity_rate 	33.333333333333
scalar Network400.node260 	qrecord_time 	15032.813215417
scalar Network400.node260 	discovery_resolution_rate 	66.666666666667
scalar Network400.node130 	rate_of_requesters 	1
scalar Network400.node130 	number_of_resources 	22000
scalar Network400.node130 	time_period 	4
scalar Network400.node130 	number_of_messages 	8
scalar Network400.node130 	discovery_latency 	2940
scalar Network400.node130 	number_of_desired_resources 	20
scalar Network400.node130 	query_homogenity_rate 	33.333333333333
scalar Network400.node130 	qrecord_time 	15057.924426974
scalar Network400.node130 	discovery_resolution_rate 	33.333333333333
scalar Network400.node130 	rate_of_requesters 	1
scalar Network400.node130 	number_of_resources 	22000
scalar Network400.node130 	time_period 	5
scalar Network400.node130 	number_of_messages 	45
scalar Network400.node130 	discovery_latency 	2940
scalar Network400.node130 	number_of_desired_resources 	20
scalar Network400.node130 	query_homogenity_rate 	33.333333333333
scalar Network400.node130 	qrecord_time 	15135.147882843
scalar Network400.node130 	discovery_resolution_rate 	33.333333333333
scalar Network400.node350 	rate_of_requesters 	1
scalar Network400.node350 	number_of_resources 	22000
scalar Network400.node350 	time_period 	5
scalar Network400.node350 	number_of_messages 	31
scalar Network400.node350 	discovery_latency 	2976
scalar Network400.node350 	number_of_desired_resources 	20
scalar Network400.node350 	query_homogenity_rate 	33.333333333333
scalar Network400.node350 	qrecord_time 	15151.27986177
scalar Network400.node350 	discovery_resolution_rate 	33.333333333333
scalar Network400.node340 	rate_of_requesters 	1
scalar Network400.node340 	number_of_resources 	22000
scalar Network400.node340 	time_period 	3
scalar Network400.node340 	number_of_messages 	41
scalar Network400.node340 	discovery_latency 	3036
scalar Network400.node340 	number_of_desired_resources 	20
scalar Network400.node340 	query_homogenity_rate 	33.333333333333
scalar Network400.node340 	qrecord_time 	15261.971939566
scalar Network400.node340 	discovery_resolution_rate 	33.333333333333
scalar Network400.node100 	rate_of_requesters 	1
scalar Network400.node100 	number_of_resources 	22000
scalar Network400.node100 	time_period 	2
scalar Network400.node100 	number_of_messages 	160
scalar Network400.node100 	discovery_latency 	2562
scalar Network400.node100 	number_of_desired_resources 	20
scalar Network400.node100 	query_homogenity_rate 	33.333333333333
scalar Network400.node100 	qrecord_time 	15403.208816118
scalar Network400.node100 	discovery_resolution_rate 	83.333333333333
scalar Network400.node60 	rate_of_requesters 	1
scalar Network400.node60 	number_of_resources 	22000
scalar Network400.node60 	time_period 	4
scalar Network400.node60 	number_of_messages 	263
scalar Network400.node60 	discovery_latency 	2574
scalar Network400.node60 	number_of_desired_resources 	20
scalar Network400.node60 	query_homogenity_rate 	33.333333333333
scalar Network400.node60 	qrecord_time 	15543.378746156
scalar Network400.node60 	discovery_resolution_rate 	66.666666666667
scalar Network400.node290 	rate_of_requesters 	1
scalar Network400.node290 	number_of_resources 	22000
scalar Network400.node290 	time_period 	6
scalar Network400.node290 	number_of_messages 	57
scalar Network400.node290 	discovery_latency 	516
scalar Network400.node290 	number_of_desired_resources 	20
scalar Network400.node290 	query_homogenity_rate 	33.333333333333
scalar Network400.node290 	qrecord_time 	15607.235168548
scalar Network400.node290 	discovery_resolution_rate 	100
scalar Network400.node30 	rate_of_requesters 	1
scalar Network400.node30 	number_of_resources 	22000
scalar Network400.node30 	time_period 	6
scalar Network400.node30 	number_of_messages 	32
scalar Network400.node30 	discovery_latency 	240
scalar Network400.node30 	number_of_desired_resources 	20
scalar Network400.node30 	query_homogenity_rate 	33.333333333333
scalar Network400.node30 	qrecord_time 	16076.75490299
scalar Network400.node30 	discovery_resolution_rate 	100
scalar Network400.node210 	rate_of_requesters 	1
scalar Network400.node210 	number_of_resources 	22000
scalar Network400.node210 	time_period 	3
scalar Network400.node210 	number_of_messages 	18
scalar Network400.node210 	discovery_latency 	2622
scalar Network400.node210 	number_of_desired_resources 	20
scalar Network400.node210 	query_homogenity_rate 	33.333333333333
scalar Network400.node210 	qrecord_time 	16125.795830574
scalar Network400.node210 	discovery_resolution_rate 	66.666666666667
scalar Network400.node120 	rate_of_requesters 	1
scalar Network400.node120 	number_of_resources 	22000
scalar Network400.node120 	time_period 	5
scalar Network400.node120 	number_of_messages 	13
scalar Network400.node120 	discovery_latency 	2940
scalar Network400.node120 	number_of_desired_resources 	20
scalar Network400.node120 	query_homogenity_rate 	33.333333333333
scalar Network400.node120 	qrecord_time 	16333.45220938
scalar Network400.node120 	discovery_resolution_rate 	33.333333333333
scalar Network400.node30 	rate_of_requesters 	1
scalar Network400.node30 	number_of_resources 	22000
scalar Network400.node30 	time_period 	5
scalar Network400.node30 	number_of_messages 	46
scalar Network400.node30 	discovery_latency 	3012
scalar Network400.node30 	number_of_desired_resources 	20
scalar Network400.node30 	query_homogenity_rate 	33.333333333333
scalar Network400.node30 	qrecord_time 	16482.964013618
scalar Network400.node30 	discovery_resolution_rate 	66.666666666667
scalar Network400.node210 	rate_of_requesters 	1
scalar Network400.node210 	number_of_resources 	22000
scalar Network400.node210 	time_period 	4
scalar Network400.node210 	number_of_messages 	32
scalar Network400.node210 	discovery_latency 	2928
scalar Network400.node210 	number_of_desired_resources 	20
scalar Network400.node210 	query_homogenity_rate 	33.333333333333
scalar Network400.node210 	qrecord_time 	16569.062391352
scalar Network400.node210 	discovery_resolution_rate 	33.333333333333
scalar Network400.node230 	rate_of_requesters 	1
scalar Network400.node230 	number_of_resources 	22000
scalar Network400.node230 	time_period 	3
scalar Network400.node230 	number_of_messages 	124
scalar Network400.node230 	discovery_latency 	2916
scalar Network400.node230 	number_of_desired_resources 	20
scalar Network400.node230 	query_homogenity_rate 	33.333333333333
scalar Network400.node230 	qrecord_time 	16619.152349888
scalar Network400.node230 	discovery_resolution_rate 	16.666666666667
scalar Network400.node10 	rate_of_requesters 	1
scalar Network400.node10 	number_of_resources 	22000
scalar Network400.node10 	time_period 	5
scalar Network400.node10 	number_of_messages 	124
scalar Network400.node10 	discovery_latency 	2892
scalar Network400.node10 	number_of_desired_resources 	20
scalar Network400.node10 	query_homogenity_rate 	33.333333333333
scalar Network400.node10 	qrecord_time 	16778.258587607
scalar Network400.node10 	discovery_resolution_rate 	16.666666666667
scalar Network400.node70 	rate_of_requesters 	1
scalar Network400.node70 	number_of_resources 	22000
scalar Network400.node70 	time_period 	4
scalar Network400.node70 	number_of_messages 	177
scalar Network400.node70 	discovery_latency 	2544
scalar Network400.node70 	number_of_desired_resources 	20
scalar Network400.node70 	query_homogenity_rate 	33.333333333333
scalar Network400.node70 	qrecord_time 	16808.427101796
scalar Network400.node70 	discovery_resolution_rate 	83.333333333333
scalar Network400.node180 	rate_of_requesters 	1
scalar Network400.node180 	number_of_resources 	22000
scalar Network400.node180 	time_period 	8
scalar Network400.node180 	number_of_messages 	44
scalar Network400.node180 	discovery_latency 	2502
scalar Network400.node180 	number_of_desired_resources 	20
scalar Network400.node180 	query_homogenity_rate 	33.333333333333
scalar Network400.node180 	qrecord_time 	16831.029961842
scalar Network400.node180 	discovery_resolution_rate 	66.666666666667
scalar Network400.node360 	rate_of_requesters 	1
scalar Network400.node360 	number_of_resources 	22000
scalar Network400.node360 	time_period 	8
scalar Network400.node360 	number_of_messages 	15
scalar Network400.node360 	discovery_latency 	2892
scalar Network400.node360 	number_of_desired_resources 	20
scalar Network400.node360 	query_homogenity_rate 	33.333333333333
scalar Network400.node360 	qrecord_time 	16896.781460095
scalar Network400.node360 	discovery_resolution_rate 	33.333333333333
scalar Network400.node140 	rate_of_requesters 	1
scalar Network400.node140 	number_of_resources 	22000
scalar Network400.node140 	time_period 	3
scalar Network400.node140 	number_of_messages 	0
scalar Network400.node140 	discovery_latency 	2976
scalar Network400.node140 	number_of_desired_resources 	20
scalar Network400.node140 	query_homogenity_rate 	33.333333333333
scalar Network400.node140 	qrecord_time 	16956.208593162
scalar Network400.node140 	discovery_resolution_rate 	0
scalar Network400.node230 	rate_of_requesters 	1
scalar Network400.node230 	number_of_resources 	22000
scalar Network400.node230 	time_period 	4
scalar Network400.node230 	number_of_messages 	138
scalar Network400.node230 	discovery_latency 	2112
scalar Network400.node230 	number_of_desired_resources 	20
scalar Network400.node230 	query_homogenity_rate 	33.333333333333
scalar Network400.node230 	qrecord_time 	17216.356718987
scalar Network400.node230 	discovery_resolution_rate 	100
scalar Network400.node80 	rate_of_requesters 	1
scalar Network400.node80 	number_of_resources 	22000
scalar Network400.node80 	time_period 	3
scalar Network400.node80 	number_of_messages 	157
scalar Network400.node80 	discovery_latency 	2940
scalar Network400.node80 	number_of_desired_resources 	20
scalar Network400.node80 	query_homogenity_rate 	33.333333333333
scalar Network400.node80 	qrecord_time 	17274.620624385
scalar Network400.node80 	discovery_resolution_rate 	50
scalar Network400.node100 	rate_of_requesters 	1
scalar Network400.node100 	number_of_resources 	22000
scalar Network400.node100 	time_period 	3
scalar Network400.node100 	number_of_messages 	160
scalar Network400.node100 	discovery_latency 	2796
scalar Network400.node100 	number_of_desired_resources 	20
scalar Network400.node100 	query_homogenity_rate 	33.333333333333
scalar Network400.node100 	qrecord_time 	17338.913329921
scalar Network400.node100 	discovery_resolution_rate 	50
scalar Network400.node360 	rate_of_requesters 	1
scalar Network400.node360 	number_of_resources 	22000
scalar Network400.node360 	time_period 	9
scalar Network400.node360 	number_of_messages 	164
scalar Network400.node360 	discovery_latency 	2952
scalar Network400.node360 	number_of_desired_resources 	20
scalar Network400.node360 	query_homogenity_rate 	33.333333333333
scalar Network400.node360 	qrecord_time 	17491.081235879
scalar Network400.node360 	discovery_resolution_rate 	50
scalar Network400.node70 	rate_of_requesters 	1
scalar Network400.node70 	number_of_resources 	22000
scalar Network400.node70 	time_period 	5
scalar Network400.node70 	number_of_messages 	32
scalar Network400.node70 	discovery_latency 	3036
scalar Network400.node70 	number_of_desired_resources 	20
scalar Network400.node70 	query_homogenity_rate 	33.333333333333
scalar Network400.node70 	qrecord_time 	17640.106606873
scalar Network400.node70 	discovery_resolution_rate 	33.333333333333
scalar Network400.node340 	rate_of_requesters 	1
scalar Network400.node340 	number_of_resources 	22000
scalar Network400.node340 	time_period 	4
scalar Network400.node340 	number_of_messages 	157
scalar Network400.node340 	discovery_latency 	2484
scalar Network400.node340 	number_of_desired_resources 	20
scalar Network400.node340 	query_homogenity_rate 	33.333333333333
scalar Network400.node340 	qrecord_time 	17733.942794383
scalar Network400.node340 	discovery_resolution_rate 	83.333333333333
scalar Network400.node120 	rate_of_requesters 	1
scalar Network400.node120 	number_of_resources 	22000
scalar Network400.node120 	time_period 	6
scalar Network400.node120 	number_of_messages 	34
scalar Network400.node120 	discovery_latency 	240
scalar Network400.node120 	number_of_desired_resources 	20
scalar Network400.node120 	query_homogenity_rate 	33.333333333333
scalar Network400.node120 	qrecord_time 	17794.590132791
scalar Network400.node120 	discovery_resolution_rate 	100
scalar Network400.node350 	rate_of_requesters 	1
scalar Network400.node350 	number_of_resources 	22000
scalar Network400.node350 	time_period 	6
scalar Network400.node350 	number_of_messages 	30
scalar Network400.node350 	discovery_latency 	2532
scalar Network400.node350 	number_of_desired_resources 	20
scalar Network400.node350 	query_homogenity_rate 	33.333333333333
scalar Network400.node350 	qrecord_time 	17847.456024016
scalar Network400.node350 	discovery_resolution_rate 	66.666666666667
scalar Network400.node330 	rate_of_requesters 	1
scalar Network400.node330 	number_of_resources 	22000
scalar Network400.node330 	time_period 	5
scalar Network400.node330 	number_of_messages 	17
scalar Network400.node330 	discovery_latency 	132
scalar Network400.node330 	number_of_desired_resources 	20
scalar Network400.node330 	query_homogenity_rate 	33.333333333333
scalar Network400.node330 	qrecord_time 	17879.829490751
scalar Network400.node330 	discovery_resolution_rate 	100
scalar Network400.node270 	rate_of_requesters 	1
scalar Network400.node270 	number_of_resources 	22000
scalar Network400.node270 	time_period 	3
scalar Network400.node270 	number_of_messages 	43
scalar Network400.node270 	discovery_latency 	450
scalar Network400.node270 	number_of_desired_resources 	20
scalar Network400.node270 	query_homogenity_rate 	33.333333333333
scalar Network400.node270 	qrecord_time 	18118.609467874
scalar Network400.node270 	discovery_resolution_rate 	100
scalar Network400.node270 	rate_of_requesters 	1
scalar Network400.node270 	number_of_resources 	22000
scalar Network400.node270 	time_period 	2
scalar Network400.node270 	number_of_messages 	143
scalar Network400.node270 	discovery_latency 	2574
scalar Network400.node270 	number_of_desired_resources 	20
scalar Network400.node270 	query_homogenity_rate 	33.333333333333
scalar Network400.node270 	qrecord_time 	18142.575538074
scalar Network400.node270 	discovery_resolution_rate 	50
scalar Network400.node340 	rate_of_requesters 	1
scalar Network400.node340 	number_of_resources 	22000
scalar Network400.node340 	time_period 	5
scalar Network400.node340 	number_of_messages 	21
scalar Network400.node340 	discovery_latency 	2952
scalar Network400.node340 	number_of_desired_resources 	20
scalar Network400.node340 	query_homogenity_rate 	33.333333333333
scalar Network400.node340 	qrecord_time 	18463.492621893
scalar Network400.node340 	discovery_resolution_rate 	66.666666666667
scalar Network400.node50 	rate_of_requesters 	1
scalar Network400.node50 	number_of_resources 	22000
scalar Network400.node50 	time_period 	4
scalar Network400.node50 	number_of_messages 	21
scalar Network400.node50 	discovery_latency 	3024
scalar Network400.node50 	number_of_desired_resources 	20
scalar Network400.node50 	query_homogenity_rate 	33.333333333333
scalar Network400.node50 	qrecord_time 	18564.64488676
scalar Network400.node50 	discovery_resolution_rate 	33.333333333333
scalar Network400.node360 	rate_of_requesters 	1
scalar Network400.node360 	number_of_resources 	22000
scalar Network400.node360 	time_period 	10
scalar Network400.node360 	number_of_messages 	71
scalar Network400.node360 	discovery_latency 	738
scalar Network400.node360 	number_of_desired_resources 	20
scalar Network400.node360 	query_homogenity_rate 	33.333333333333
scalar Network400.node360 	qrecord_time 	18575.201102267
scalar Network400.node360 	discovery_resolution_rate 	100
scalar Network400.node380 	rate_of_requesters 	1
scalar Network400.node380 	number_of_resources 	22000
scalar Network400.node380 	time_period 	3
scalar Network400.node380 	number_of_messages 	172
scalar Network400.node380 	discovery_latency 	2658
scalar Network400.node380 	number_of_desired_resources 	20
scalar Network400.node380 	query_homogenity_rate 	33.333333333333
scalar Network400.node380 	qrecord_time 	18673.066878904
scalar Network400.node380 	discovery_resolution_rate 	50
scalar Network400.node200 	rate_of_requesters 	1
scalar Network400.node200 	number_of_resources 	22000
scalar Network400.node200 	time_period 	3
scalar Network400.node200 	number_of_messages 	2
scalar Network400.node200 	discovery_latency 	2880
[...]
scalar Network400.node350 	qrecord_time 	44562.4291747
scalar Network400.node350 	discovery_resolution_rate 	100
scalar Network400.node170 	rate_of_requesters 	1
scalar Network400.node170 	number_of_resources 	22000
scalar Network400.node170 	time_period 	6
scalar Network400.node170 	number_of_messages 	17
scalar Network400.node170 	discovery_latency 	180
scalar Network400.node170 	number_of_desired_resources 	20
scalar Network400.node170 	query_homogenity_rate 	33.333333333333
scalar Network400.node170 	qrecord_time 	44658.066838361
scalar Network400.node170 	discovery_resolution_rate 	100
scalar Network400.node110 	rate_of_requesters 	1
scalar Network400.node110 	number_of_resources 	22000
scalar Network400.node110 	time_period 	10
scalar Network400.node110 	number_of_messages 	19
scalar Network400.node110 	discovery_latency 	144
scalar Network400.node110 	number_of_desired_resources 	20
scalar Network400.node110 	query_homogenity_rate 	33.333333333333
scalar Network400.node110 	qrecord_time 	45081.650943297
scalar Network400.node110 	discovery_resolution_rate 	100
scalar Network400.node320 	rate_of_requesters 	1
scalar Network400.node320 	number_of_resources 	22000
scalar Network400.node320 	time_period 	8
scalar Network400.node320 	number_of_messages 	16
scalar Network400.node320 	discovery_latency 	120
scalar Network400.node320 	number_of_desired_resources 	20
scalar Network400.node320 	query_homogenity_rate 	33.333333333333
scalar Network400.node320 	qrecord_time 	45456.459837521
scalar Network400.node320 	discovery_resolution_rate 	100
scalar Network400.node210 	rate_of_requesters 	1
scalar Network400.node210 	number_of_resources 	22000
scalar Network400.node210 	time_period 	10
scalar Network400.node210 	number_of_messages 	23
scalar Network400.node210 	discovery_latency 	108
scalar Network400.node210 	number_of_desired_resources 	20
scalar Network400.node210 	query_homogenity_rate 	33.333333333333
scalar Network400.node210 	qrecord_time 	46083.13054264
scalar Network400.node210 	discovery_resolution_rate 	100
scalar Network400.node80 	rate_of_requesters 	1
scalar Network400.node80 	number_of_resources 	22000
scalar Network400.node80 	time_period 	7
scalar Network400.node80 	number_of_messages 	16
scalar Network400.node80 	discovery_latency 	120
scalar Network400.node80 	number_of_desired_resources 	20
scalar Network400.node80 	query_homogenity_rate 	33.333333333333
scalar Network400.node80 	qrecord_time 	46192.247822294
scalar Network400.node80 	discovery_resolution_rate 	100
scalar Network400.node10 	rate_of_requesters 	1
scalar Network400.node10 	number_of_resources 	22000
scalar Network400.node10 	time_period 	7
scalar Network400.node10 	number_of_messages 	25
scalar Network400.node10 	discovery_latency 	203.99999999999
scalar Network400.node10 	number_of_desired_resources 	20
scalar Network400.node10 	query_homogenity_rate 	33.333333333333
scalar Network400.node10 	qrecord_time 	46399.36413333
scalar Network400.node10 	discovery_resolution_rate 	100
scalar Network400.node200 	rate_of_requesters 	1
scalar Network400.node200 	number_of_resources 	22000
scalar Network400.node200 	time_period 	7
scalar Network400.node200 	number_of_messages 	20
scalar Network400.node200 	discovery_latency 	216
scalar Network400.node200 	number_of_desired_resources 	20
scalar Network400.node200 	query_homogenity_rate 	33.333333333333
scalar Network400.node200 	qrecord_time 	46411.657062322
scalar Network400.node200 	discovery_resolution_rate 	100
scalar Network400.node100 	rate_of_requesters 	1
scalar Network400.node100 	number_of_resources 	22000
scalar Network400.node100 	time_period 	10
scalar Network400.node100 	number_of_messages 	15
scalar Network400.node100 	discovery_latency 	83.999999999996
scalar Network400.node100 	number_of_desired_resources 	20
scalar Network400.node100 	query_homogenity_rate 	33.333333333333
scalar Network400.node100 	qrecord_time 	47299.24112574
scalar Network400.node100 	discovery_resolution_rate 	100
scalar Network400.node30 	rate_of_requesters 	1
scalar Network400.node30 	number_of_resources 	22000
scalar Network400.node30 	time_period 	10
scalar Network400.node30 	number_of_messages 	18
scalar Network400.node30 	discovery_latency 	120
scalar Network400.node30 	number_of_desired_resources 	20
scalar Network400.node30 	query_homogenity_rate 	33.333333333333
scalar Network400.node30 	qrecord_time 	47994.745410967
scalar Network400.node30 	discovery_resolution_rate 	100
scalar Network400.node300 	rate_of_requesters 	1
scalar Network400.node300 	number_of_resources 	22000
scalar Network400.node300 	time_period 	5
scalar Network400.node300 	number_of_messages 	21
scalar Network400.node300 	discovery_latency 	132
scalar Network400.node300 	number_of_desired_resources 	20
scalar Network400.node300 	query_homogenity_rate 	33.333333333333
scalar Network400.node300 	qrecord_time 	48019.339414396
scalar Network400.node300 	discovery_resolution_rate 	100
scalar Network400.node10 	rate_of_requesters 	1
scalar Network400.node10 	number_of_resources 	22000
scalar Network400.node10 	time_period 	8
scalar Network400.node10 	number_of_messages 	32
scalar Network400.node10 	discovery_latency 	192
scalar Network400.node10 	number_of_desired_resources 	20
scalar Network400.node10 	query_homogenity_rate 	33.333333333333
scalar Network400.node10 	qrecord_time 	48466.195778062
scalar Network400.node10 	discovery_resolution_rate 	100
scalar Network400.node390 	rate_of_requesters 	1
scalar Network400.node390 	number_of_resources 	22000
scalar Network400.node390 	time_period 	10
scalar Network400.node390 	number_of_messages 	26
scalar Network400.node390 	discovery_latency 	180
scalar Network400.node390 	number_of_desired_resources 	20
scalar Network400.node390 	query_homogenity_rate 	33.333333333333
scalar Network400.node390 	qrecord_time 	48499.583169171
scalar Network400.node390 	discovery_resolution_rate 	100
scalar Network400.node10 	rate_of_requesters 	1
scalar Network400.node10 	number_of_resources 	22000
scalar Network400.node10 	time_period 	9
scalar Network400.node10 	number_of_messages 	21
scalar Network400.node10 	discovery_latency 	132.00000000001
scalar Network400.node10 	number_of_desired_resources 	20
scalar Network400.node10 	query_homogenity_rate 	33.333333333333
scalar Network400.node10 	qrecord_time 	49087.311146056
scalar Network400.node10 	discovery_resolution_rate 	100
scalar Network400.node10 	rate_of_requesters 	1
scalar Network400.node10 	number_of_resources 	22000
scalar Network400.node10 	time_period 	10
scalar Network400.node10 	number_of_messages 	27
scalar Network400.node10 	discovery_latency 	192
scalar Network400.node10 	number_of_desired_resources 	20
scalar Network400.node10 	query_homogenity_rate 	33.333333333333
scalar Network400.node10 	qrecord_time 	49246.594248864
scalar Network400.node10 	discovery_resolution_rate 	100
scalar Network400.node220 	rate_of_requesters 	1
scalar Network400.node220 	number_of_resources 	22000
scalar Network400.node220 	time_period 	9
scalar Network400.node220 	number_of_messages 	27
scalar Network400.node220 	discovery_latency 	180
scalar Network400.node220 	number_of_desired_resources 	20
scalar Network400.node220 	query_homogenity_rate 	33.333333333333
scalar Network400.node220 	qrecord_time 	49407.471507622
scalar Network400.node220 	discovery_resolution_rate 	100
scalar Network400.node80 	rate_of_requesters 	1
scalar Network400.node80 	number_of_resources 	22000
scalar Network400.node80 	time_period 	8
scalar Network400.node80 	number_of_messages 	16
scalar Network400.node80 	discovery_latency 	120
scalar Network400.node80 	number_of_desired_resources 	20
scalar Network400.node80 	query_homogenity_rate 	33.333333333333
scalar Network400.node80 	qrecord_time 	49868.745802794
scalar Network400.node80 	discovery_resolution_rate 	100
scalar Network400.node80 	rate_of_requesters 	1
scalar Network400.node80 	number_of_resources 	22000
scalar Network400.node80 	time_period 	9
scalar Network400.node80 	number_of_messages 	20
scalar Network400.node80 	discovery_latency 	180
scalar Network400.node80 	number_of_desired_resources 	20
scalar Network400.node80 	query_homogenity_rate 	33.333333333333
scalar Network400.node80 	qrecord_time 	50071.637256788
scalar Network400.node80 	discovery_resolution_rate 	100
scalar Network400.node170 	rate_of_requesters 	1
scalar Network400.node170 	number_of_resources 	22000
scalar Network400.node170 	time_period 	7
scalar Network400.node170 	number_of_messages 	20
scalar Network400.node170 	discovery_latency 	180
scalar Network400.node170 	number_of_desired_resources 	20
scalar Network400.node170 	query_homogenity_rate 	33.333333333333
scalar Network400.node170 	qrecord_time 	50085.395870623
scalar Network400.node170 	discovery_resolution_rate 	100
scalar Network400.node220 	rate_of_requesters 	1
scalar Network400.node220 	number_of_resources 	22000
scalar Network400.node220 	time_period 	10
scalar Network400.node220 	number_of_messages 	21
scalar Network400.node220 	discovery_latency 	132
scalar Network400.node220 	number_of_desired_resources 	20
scalar Network400.node220 	query_homogenity_rate 	33.333333333333
scalar Network400.node220 	qrecord_time 	50173.382140033
scalar Network400.node220 	discovery_resolution_rate 	100
scalar Network400.node150 	rate_of_requesters 	1
scalar Network400.node150 	number_of_resources 	22000
scalar Network400.node150 	time_period 	8
scalar Network400.node150 	number_of_messages 	14
scalar Network400.node150 	discovery_latency 	144
scalar Network400.node150 	number_of_desired_resources 	20
scalar Network400.node150 	query_homogenity_rate 	33.333333333333
scalar Network400.node150 	qrecord_time 	50188.308949047
scalar Network400.node150 	discovery_resolution_rate 	100
scalar Network400.node150 	rate_of_requesters 	1
scalar Network400.node150 	number_of_resources 	22000
scalar Network400.node150 	time_period 	9
scalar Network400.node150 	number_of_messages 	19
scalar Network400.node150 	discovery_latency 	204
scalar Network400.node150 	number_of_desired_resources 	20
scalar Network400.node150 	query_homogenity_rate 	33.333333333333
scalar Network400.node150 	qrecord_time 	51162.630643157
scalar Network400.node150 	discovery_resolution_rate 	100
scalar Network400.node300 	rate_of_requesters 	1
scalar Network400.node300 	number_of_resources 	22000
scalar Network400.node300 	time_period 	6
scalar Network400.node300 	number_of_messages 	20
scalar Network400.node300 	discovery_latency 	132
scalar Network400.node300 	number_of_desired_resources 	20
scalar Network400.node300 	query_homogenity_rate 	33.333333333333
scalar Network400.node300 	qrecord_time 	51809.508270942
scalar Network400.node300 	discovery_resolution_rate 	100
scalar Network400.node320 	rate_of_requesters 	1
scalar Network400.node320 	number_of_resources 	22000
scalar Network400.node320 	time_period 	9
scalar Network400.node320 	number_of_messages 	16
scalar Network400.node320 	discovery_latency 	120
scalar Network400.node320 	number_of_desired_resources 	20
scalar Network400.node320 	query_homogenity_rate 	33.333333333333
scalar Network400.node320 	qrecord_time 	53804.676500973
scalar Network400.node320 	discovery_resolution_rate 	100
scalar Network400.node350 	rate_of_requesters 	1
scalar Network400.node350 	number_of_resources 	22000
scalar Network400.node350 	time_period 	10
scalar Network400.node350 	number_of_messages 	16
scalar Network400.node350 	discovery_latency 	180
scalar Network400.node350 	number_of_desired_resources 	20
scalar Network400.node350 	query_homogenity_rate 	33.333333333333
scalar Network400.node350 	qrecord_time 	54229.877775285
scalar Network400.node350 	discovery_resolution_rate 	100
scalar Network400.node300 	rate_of_requesters 	1
scalar Network400.node300 	number_of_resources 	22000
scalar Network400.node300 	time_period 	7
scalar Network400.node300 	number_of_messages 	18
scalar Network400.node300 	discovery_latency 	132
scalar Network400.node300 	number_of_desired_resources 	20
scalar Network400.node300 	query_homogenity_rate 	33.333333333333
scalar Network400.node300 	qrecord_time 	54683.608551484
scalar Network400.node300 	discovery_resolution_rate 	100
scalar Network400.node170 	rate_of_requesters 	1
scalar Network400.node170 	number_of_resources 	22000
scalar Network400.node170 	time_period 	8
scalar Network400.node170 	number_of_messages 	13
scalar Network400.node170 	discovery_latency 	120
scalar Network400.node170 	number_of_desired_resources 	20
scalar Network400.node170 	query_homogenity_rate 	33.333333333333
scalar Network400.node170 	qrecord_time 	55073.625620818
scalar Network400.node170 	discovery_resolution_rate 	100
scalar Network400.node320 	rate_of_requesters 	1
scalar Network400.node320 	number_of_resources 	22000
scalar Network400.node320 	time_period 	10
scalar Network400.node320 	number_of_messages 	16
scalar Network400.node320 	discovery_latency 	120
scalar Network400.node320 	number_of_desired_resources 	20
scalar Network400.node320 	query_homogenity_rate 	33.333333333333
scalar Network400.node320 	qrecord_time 	55914.800420408
scalar Network400.node320 	discovery_resolution_rate 	100
scalar Network400.node80 	rate_of_requesters 	1
scalar Network400.node80 	number_of_resources 	22000
scalar Network400.node80 	time_period 	10
scalar Network400.node80 	number_of_messages 	15
scalar Network400.node80 	discovery_latency 	120
scalar Network400.node80 	number_of_desired_resources 	20
scalar Network400.node80 	query_homogenity_rate 	33.333333333333
scalar Network400.node80 	qrecord_time 	56386.658459293
scalar Network400.node80 	discovery_resolution_rate 	100
scalar Network400.node0 	rate_of_requesters 	1
scalar Network400.node0 	number_of_resources 	22000
scalar Network400.node0 	time_period 	8
scalar Network400.node0 	number_of_messages 	12
scalar Network400.node0 	discovery_latency 	95.999999999997
scalar Network400.node0 	number_of_desired_resources 	20
scalar Network400.node0 	query_homogenity_rate 	33.333333333333
scalar Network400.node0 	qrecord_time 	58512.373924713
scalar Network400.node0 	discovery_resolution_rate 	100
scalar Network400.node70 	rate_of_requesters 	1
scalar Network400.node70 	number_of_resources 	22000
scalar Network400.node70 	time_period 	10
scalar Network400.node70 	number_of_messages 	21
scalar Network400.node70 	discovery_latency 	168
scalar Network400.node70 	number_of_desired_resources 	20
scalar Network400.node70 	query_homogenity_rate 	33.333333333333
scalar Network400.node70 	qrecord_time 	59160.045541807
scalar Network400.node70 	discovery_resolution_rate 	100
scalar Network400.node0 	rate_of_requesters 	1
scalar Network400.node0 	number_of_resources 	22000
scalar Network400.node0 	time_period 	9
scalar Network400.node0 	number_of_messages 	12
scalar Network400.node0 	discovery_latency 	96.000000000004
scalar Network400.node0 	number_of_desired_resources 	20
scalar Network400.node0 	query_homogenity_rate 	33.333333333333
scalar Network400.node0 	qrecord_time 	59737.642870936
scalar Network400.node0 	discovery_resolution_rate 	100
scalar Network400.node200 	rate_of_requesters 	1
scalar Network400.node200 	number_of_resources 	22000
scalar Network400.node200 	time_period 	8
scalar Network400.node200 	number_of_messages 	19
scalar Network400.node200 	discovery_latency 	204
scalar Network400.node200 	number_of_desired_resources 	20
scalar Network400.node200 	query_homogenity_rate 	33.333333333333
scalar Network400.node200 	qrecord_time 	61020.811980996
scalar Network400.node200 	discovery_resolution_rate 	100
scalar Network400.node170 	rate_of_requesters 	1
scalar Network400.node170 	number_of_resources 	22000
scalar Network400.node170 	time_period 	9
scalar Network400.node170 	number_of_messages 	13
scalar Network400.node170 	discovery_latency 	120
scalar Network400.node170 	number_of_desired_resources 	20
scalar Network400.node170 	query_homogenity_rate 	33.333333333333
scalar Network400.node170 	qrecord_time 	62020.702807393
scalar Network400.node170 	discovery_resolution_rate 	100
scalar Network400.node150 	rate_of_requesters 	1
scalar Network400.node150 	number_of_resources 	22000
scalar Network400.node150 	time_period 	10
scalar Network400.node150 	number_of_messages 	16
scalar Network400.node150 	discovery_latency 	144
scalar Network400.node150 	number_of_desired_resources 	20
scalar Network400.node150 	query_homogenity_rate 	33.333333333333
scalar Network400.node150 	qrecord_time 	62173.153880673
scalar Network400.node150 	discovery_resolution_rate 	100
scalar Network400.node0 	rate_of_requesters 	1
scalar Network400.node0 	number_of_resources 	22000
scalar Network400.node0 	time_period 	10
scalar Network400.node0 	number_of_messages 	12
scalar Network400.node0 	discovery_latency 	96.000000000004
scalar Network400.node0 	number_of_desired_resources 	20
scalar Network400.node0 	query_homogenity_rate 	33.333333333333
scalar Network400.node0 	qrecord_time 	62435.791047476
scalar Network400.node0 	discovery_resolution_rate 	100
scalar Network400.node200 	rate_of_requesters 	1
scalar Network400.node200 	number_of_resources 	22000
scalar Network400.node200 	time_period 	9
scalar Network400.node200 	number_of_messages 	19
scalar Network400.node200 	discovery_latency 	204
scalar Network400.node200 	number_of_desired_resources 	20
scalar Network400.node200 	query_homogenity_rate 	33.333333333333
scalar Network400.node200 	qrecord_time 	62550.01741939
scalar Network400.node200 	discovery_resolution_rate 	100
scalar Network400.node300 	rate_of_requesters 	1
scalar Network400.node300 	number_of_resources 	22000
scalar Network400.node300 	time_period 	8
scalar Network400.node300 	number_of_messages 	19
scalar Network400.node300 	discovery_latency 	132
scalar Network400.node300 	number_of_desired_resources 	20
scalar Network400.node300 	query_homogenity_rate 	33.333333333333
scalar Network400.node300 	qrecord_time 	62646.281109335
scalar Network400.node300 	discovery_resolution_rate 	100
scalar Network400.node300 	rate_of_requesters 	1
scalar Network400.node300 	number_of_resources 	22000
scalar Network400.node300 	time_period 	9
scalar Network400.node300 	number_of_messages 	18
scalar Network400.node300 	discovery_latency 	132.00000000001
scalar Network400.node300 	number_of_desired_resources 	20
scalar Network400.node300 	query_homogenity_rate 	33.333333333333
scalar Network400.node300 	qrecord_time 	63876.781412314
scalar Network400.node300 	discovery_resolution_rate 	100
scalar Network400.node300 	rate_of_requesters 	1
scalar Network400.node300 	number_of_resources 	22000
scalar Network400.node300 	time_period 	10
scalar Network400.node300 	number_of_messages 	20
scalar Network400.node300 	discovery_latency 	132.00000000001
scalar Network400.node300 	number_of_desired_resources 	20
scalar Network400.node300 	query_homogenity_rate 	33.333333333333
scalar Network400.node300 	qrecord_time 	64555.364482374
scalar Network400.node300 	discovery_resolution_rate 	100
scalar Network400.node170 	rate_of_requesters 	1
scalar Network400.node170 	number_of_resources 	22000
scalar Network400.node170 	time_period 	10
scalar Network400.node170 	number_of_messages 	13
scalar Network400.node170 	discovery_latency 	119.99999999999
scalar Network400.node170 	number_of_desired_resources 	20
scalar Network400.node170 	query_homogenity_rate 	33.333333333333
scalar Network400.node170 	qrecord_time 	69751.169150044
scalar Network400.node170 	discovery_resolution_rate 	100
scalar Network400.node200 	rate_of_requesters 	1
scalar Network400.node200 	number_of_resources 	22000
scalar Network400.node200 	time_period 	10
scalar Network400.node200 	number_of_messages 	14
scalar Network400.node200 	discovery_latency 	144.00000000001
scalar Network400.node200 	number_of_desired_resources 	20
scalar Network400.node200 	query_homogenity_rate 	33.333333333333
scalar Network400.node200 	qrecord_time 	70566.64724407
scalar Network400.node200 	discovery_resolution_rate 	100
