version 2
run net400-1-20150623-18:29:39-8962
attr as 1
attr configname net400
attr datetime 20150623-18:29:39
attr dnor 20
attr experiment net400
attr inifile omnetpp.ini
attr iterationvars "$rhdrq=3, $dnor=20, $as=1"
attr iterationvars2 "$rhdrq=3, $dnor=20, $as=1, $repetition=1"
attr measurement "$rhdrq=3, $dnor=20, $as=1"
attr network Network400
attr processid 8962
attr repetition 1
attr replication #1
attr resultdir results
attr rhdrq 3
attr runnumber 1
attr seedset 1

scalar . 	as 	1
scalar . 	dnor 	20
scalar . 	rhdrq 	3
scalar Network400.node310 	rate_of_requesters 	1
scalar Network400.node310 	number_of_resources 	22000
scalar Network400.node310 	time_period 	1
scalar Network400.node310 	number_of_messages 	17
scalar Network400.node310 	discovery_latency 	1728
scalar Network400.node310 	number_of_desired_resources 	20
scalar Network400.node310 	query_homogenity_rate 	33.333333333333
scalar Network400.node310 	qrecord_time 	6376
scalar Network400.node310 	discovery_resolution_rate 	66.666666666667
scalar Network400.node380 	rate_of_requesters 	1
scalar Network400.node380 	number_of_resources 	22000
scalar Network400.node380 	time_period 	1
scalar Network400.node380 	number_of_messages 	20
scalar Network400.node380 	discovery_latency 	1812
scalar Network400.node380 	number_of_desired_resources 	20
scalar Network400.node380 	query_homogenity_rate 	33.333333333333
scalar Network400.node380 	qrecord_time 	6502
scalar Network400.node380 	discovery_resolution_rate 	66.666666666667
scalar Network400.node170 	rate_of_requesters 	1
scalar Network400.node170 	number_of_resources 	22000
scalar Network400.node170 	time_period 	1
scalar Network400.node170 	number_of_messages 	13
scalar Network400.node170 	discovery_latency 	1764
scalar Network400.node170 	number_of_desired_resources 	20
scalar Network400.node170 	query_homogenity_rate 	33.333333333333
scalar Network400.node170 	qrecord_time 	6514
scalar Network400.node170 	discovery_resolution_rate 	66.666666666667
scalar Network400.node230 	rate_of_requesters 	1
scalar Network400.node230 	number_of_resources 	22000
scalar Network400.node230 	time_period 	1
scalar Network400.node230 	number_of_messages 	13
scalar Network400.node230 	discovery_latency 	1812
scalar Network400.node230 	number_of_desired_resources 	20
scalar Network400.node230 	query_homogenity_rate 	33.333333333333
scalar Network400.node230 	qrecord_time 	6526
scalar Network400.node230 	discovery_resolution_rate 	66.666666666667
scalar Network400.node220 	rate_of_requesters 	1
scalar Network400.node220 	number_of_resources 	22000
scalar Network400.node220 	time_period 	1
scalar Network400.node220 	number_of_messages 	32
scalar Network400.node220 	discovery_latency 	1800
scalar Network400.node220 	number_of_desired_resources 	20
scalar Network400.node220 	query_homogenity_rate 	33.333333333333
scalar Network400.node220 	qrecord_time 	6550
scalar Network400.node220 	discovery_resolution_rate 	66.666666666667
scalar Network400.node70 	rate_of_requesters 	1
scalar Network400.node70 	number_of_resources 	22000
scalar Network400.node70 	time_period 	1
scalar Network400.node70 	number_of_messages 	27
scalar Network400.node70 	discovery_latency 	1860
scalar Network400.node70 	number_of_desired_resources 	20
scalar Network400.node70 	query_homogenity_rate 	33.333333333333
scalar Network400.node70 	qrecord_time 	6574
scalar Network400.node70 	discovery_resolution_rate 	66.666666666667
scalar Network400.node190 	rate_of_requesters 	1
scalar Network400.node190 	number_of_resources 	22000
scalar Network400.node190 	time_period 	1
scalar Network400.node190 	number_of_messages 	18
scalar Network400.node190 	discovery_latency 	1908
scalar Network400.node190 	number_of_desired_resources 	20
scalar Network400.node190 	query_homogenity_rate 	33.333333333333
scalar Network400.node190 	qrecord_time 	6574
scalar Network400.node190 	discovery_resolution_rate 	66.666666666667
scalar Network400.node90 	rate_of_requesters 	1
scalar Network400.node90 	number_of_resources 	22000
scalar Network400.node90 	time_period 	1
scalar Network400.node90 	number_of_messages 	20
scalar Network400.node90 	discovery_latency 	1932
scalar Network400.node90 	number_of_desired_resources 	20
scalar Network400.node90 	query_homogenity_rate 	33.333333333333
scalar Network400.node90 	qrecord_time 	6616
scalar Network400.node90 	discovery_resolution_rate 	66.666666666667
scalar Network400.node210 	rate_of_requesters 	1
scalar Network400.node210 	number_of_resources 	22000
scalar Network400.node210 	time_period 	1
scalar Network400.node210 	number_of_messages 	15
scalar Network400.node210 	discovery_latency 	1920
scalar Network400.node210 	number_of_desired_resources 	20
scalar Network400.node210 	query_homogenity_rate 	33.333333333333
scalar Network400.node210 	qrecord_time 	6634
scalar Network400.node210 	discovery_resolution_rate 	66.666666666667
scalar Network400.node0 	rate_of_requesters 	1
scalar Network400.node0 	number_of_resources 	22000
scalar Network400.node0 	time_period 	1
scalar Network400.node0 	number_of_messages 	14
scalar Network400.node0 	discovery_latency 	1920
scalar Network400.node0 	number_of_desired_resources 	20
scalar Network400.node0 	query_homogenity_rate 	33.333333333333
scalar Network400.node0 	qrecord_time 	6634
scalar Network400.node0 	discovery_resolution_rate 	66.666666666667
scalar Network400.node40 	rate_of_requesters 	1
scalar Network400.node40 	number_of_resources 	22000
scalar Network400.node40 	time_period 	1
scalar Network400.node40 	number_of_messages 	30
scalar Network400.node40 	discovery_latency 	1920
scalar Network400.node40 	number_of_desired_resources 	20
scalar Network400.node40 	query_homogenity_rate 	33.333333333333
scalar Network400.node40 	qrecord_time 	6646
scalar Network400.node40 	discovery_resolution_rate 	33.333333333333
scalar Network400.node110 	rate_of_requesters 	1
scalar Network400.node110 	number_of_resources 	22000
scalar Network400.node110 	time_period 	1
scalar Network400.node110 	number_of_messages 	13
scalar Network400.node110 	discovery_latency 	1932
scalar Network400.node110 	number_of_desired_resources 	20
scalar Network400.node110 	query_homogenity_rate 	33.333333333333
scalar Network400.node110 	qrecord_time 	6652
scalar Network400.node110 	discovery_resolution_rate 	66.666666666667
scalar Network400.node250 	rate_of_requesters 	1
scalar Network400.node250 	number_of_resources 	22000
scalar Network400.node250 	time_period 	1
scalar Network400.node250 	number_of_messages 	11
scalar Network400.node250 	discovery_latency 	1956
scalar Network400.node250 	number_of_desired_resources 	20
scalar Network400.node250 	query_homogenity_rate 	33.333333333333
scalar Network400.node250 	qrecord_time 	6664
scalar Network400.node250 	discovery_resolution_rate 	66.666666666667
scalar Network400.node120 	rate_of_requesters 	1
scalar Network400.node120 	number_of_resources 	22000
scalar Network400.node120 	time_period 	1
scalar Network400.node120 	number_of_messages 	5
scalar Network400.node120 	discovery_latency 	1980
scalar Network400.node120 	number_of_desired_resources 	20
scalar Network400.node120 	query_homogenity_rate 	33.333333333333
scalar Network400.node120 	qrecord_time 	6670
scalar Network400.node120 	discovery_resolution_rate 	33.333333333333
scalar Network400.node390 	rate_of_requesters 	1
scalar Network400.node390 	number_of_resources 	22000
scalar Network400.node390 	time_period 	1
scalar Network400.node390 	number_of_messages 	5
scalar Network400.node390 	discovery_latency 	1980
scalar Network400.node390 	number_of_desired_resources 	20
scalar Network400.node390 	query_homogenity_rate 	33.333333333333
scalar Network400.node390 	qrecord_time 	6670
scalar Network400.node390 	discovery_resolution_rate 	33.333333333333
scalar Network400.node260 	rate_of_requesters 	1
scalar Network400.node260 	number_of_resources 	22000
scalar Network400.node260 	time_period 	1
scalar Network400.node260 	number_of_messages 	17
scalar Network400.node260 	discovery_latency 	1968
scalar Network400.node260 	number_of_desired_resources 	20
scalar Network400.node260 	query_homogenity_rate 	33.333333333333
scalar Network400.node260 	qrecord_time 	6694
scalar Network400.node260 	discovery_resolution_rate 	66.666666666667
scalar Network400.node360 	rate_of_requesters 	1
scalar Network400.node360 	number_of_resources 	22000
scalar Network400.node360 	time_period 	1
scalar Network400.node360 	number_of_messages 	14
scalar Network400.node360 	discovery_latency 	2004
scalar Network400.node360 	number_of_desired_resources 	20
scalar Network400.node360 	query_homogenity_rate 	33.333333333333
scalar Network400.node360 	qrecord_time 	6712
scalar Network400.node360 	discovery_resolution_rate 	33.333333333333
scalar Network400.node150 	rate_of_requesters 	1
scalar Network400.node150 	number_of_resources 	22000
scalar Network400.node150 	time_period 	1
scalar Network400.node150 	number_of_messages 	4
scalar Network400.node150 	discovery_latency 	2052
scalar Network400.node150 	number_of_desired_resources 	20
scalar Network400.node150 	query_homogenity_rate 	33.333333333333
scalar Network400.node150 	qrecord_time 	6742
scalar Network400.node150 	discovery_resolution_rate 	33.333333333333
scalar Network400.node240 	rate_of_requesters 	1
scalar Network400.node240 	number_of_resources 	22000
scalar Network400.node240 	time_period 	1
scalar Network400.node240 	number_of_messages 	21
scalar Network400.node240 	discovery_latency 	2028
scalar Network400.node240 	number_of_desired_resources 	20
scalar Network400.node240 	query_homogenity_rate 	33.333333333333
scalar Network400.node240 	qrecord_time 	6742
scalar Network400.node240 	discovery_resolution_rate 	33.333333333333
scalar Network400.node180 	rate_of_requesters 	1
scalar Network400.node180 	number_of_resources 	22000
scalar Network400.node180 	time_period 	1
scalar Network400.node180 	number_of_messages 	106
scalar Network400.node180 	discovery_latency 	2052
scalar Network400.node180 	number_of_desired_resources 	20
scalar Network400.node180 	query_homogenity_rate 	33.333333333333
scalar Network400.node180 	qrecord_time 	6742
scalar Network400.node180 	discovery_resolution_rate 	50
scalar Network400.node300 	rate_of_requesters 	1
scalar Network400.node300 	number_of_resources 	22000
scalar Network400.node300 	time_period 	1
scalar Network400.node300 	number_of_messages 	5
scalar Network400.node300 	discovery_latency 	2064
scalar Network400.node300 	number_of_desired_resources 	20
scalar Network400.node300 	query_homogenity_rate 	33.333333333333
scalar Network400.node300 	qrecord_time 	6754
scalar Network400.node300 	discovery_resolution_rate 	33.333333333333
scalar Network400.node290 	rate_of_requesters 	1
scalar Network400.node290 	number_of_resources 	22000
scalar Network400.node290 	time_period 	1
scalar Network400.node290 	number_of_messages 	13
scalar Network400.node290 	discovery_latency 	1980
scalar Network400.node290 	number_of_desired_resources 	20
scalar Network400.node290 	query_homogenity_rate 	33.333333333333
scalar Network400.node290 	qrecord_time 	6760
scalar Network400.node290 	discovery_resolution_rate 	33.333333333333
scalar Network400.node100 	rate_of_requesters 	1
scalar Network400.node100 	number_of_resources 	22000
scalar Network400.node100 	time_period 	1
scalar Network400.node100 	number_of_messages 	5
scalar Network400.node100 	discovery_latency 	2016
scalar Network400.node100 	number_of_desired_resources 	20
scalar Network400.node100 	query_homogenity_rate 	33.333333333333
scalar Network400.node100 	qrecord_time 	6784
scalar Network400.node100 	discovery_resolution_rate 	33.333333333333
scalar Network400.node30 	rate_of_requesters 	1
scalar Network400.node30 	number_of_resources 	22000
scalar Network400.node30 	time_period 	1
scalar Network400.node30 	number_of_messages 	13
scalar Network400.node30 	discovery_latency 	2040
scalar Network400.node30 	number_of_desired_resources 	20
scalar Network400.node30 	query_homogenity_rate 	33.333333333333
scalar Network400.node30 	qrecord_time 	6790
scalar Network400.node30 	discovery_resolution_rate 	33.333333333333
scalar Network400.node270 	rate_of_requesters 	1
scalar Network400.node270 	number_of_resources 	22000
scalar Network400.node270 	time_period 	1
scalar Network400.node270 	number_of_messages 	5
scalar Network400.node270 	discovery_latency 	2040
scalar Network400.node270 	number_of_desired_resources 	20
scalar Network400.node270 	query_homogenity_rate 	33.333333333333
scalar Network400.node270 	qrecord_time 	6790
scalar Network400.node270 	discovery_resolution_rate 	33.333333333333
scalar Network400.node340 	rate_of_requesters 	1
scalar Network400.node340 	number_of_resources 	22000
scalar Network400.node340 	time_period 	1
scalar Network400.node340 	number_of_messages 	12
scalar Network400.node340 	discovery_latency 	2052
scalar Network400.node340 	number_of_desired_resources 	20
scalar Network400.node340 	query_homogenity_rate 	33.333333333333
scalar Network400.node340 	qrecord_time 	6790
scalar Network400.node340 	discovery_resolution_rate 	33.333333333333
scalar Network400.node370 	rate_of_requesters 	1
scalar Network400.node370 	number_of_resources 	22000
scalar Network400.node370 	time_period 	1
scalar Network400.node370 	number_of_messages 	4
scalar Network400.node370 	discovery_latency 	2100
scalar Network400.node370 	number_of_desired_resources 	20
scalar Network400.node370 	query_homogenity_rate 	33.333333333333
scalar Network400.node370 	qrecord_time 	6790
scalar Network400.node370 	discovery_resolution_rate 	33.333333333333
scalar Network400.node280 	rate_of_requesters 	1
scalar Network400.node280 	number_of_resources 	22000
scalar Network400.node280 	time_period 	1
scalar Network400.node280 	number_of_messages 	6
scalar Network400.node280 	discovery_latency 	2148
scalar Network400.node280 	number_of_desired_resources 	20
scalar Network400.node280 	query_homogenity_rate 	33.333333333333
scalar Network400.node280 	qrecord_time 	6790
scalar Network400.node280 	discovery_resolution_rate 	33.333333333333
scalar Network400.node20 	rate_of_requesters 	1
scalar Network400.node20 	number_of_resources 	22000
scalar Network400.node20 	time_period 	1
scalar Network400.node20 	number_of_messages 	29
scalar Network400.node20 	discovery_latency 	2064
scalar Network400.node20 	number_of_desired_resources 	20
scalar Network400.node20 	query_homogenity_rate 	33.333333333333
scalar Network400.node20 	qrecord_time 	6802
scalar Network400.node20 	discovery_resolution_rate 	33.333333333333
scalar Network400.node80 	rate_of_requesters 	1
scalar Network400.node80 	number_of_resources 	22000
scalar Network400.node80 	time_period 	1
scalar Network400.node80 	number_of_messages 	13
scalar Network400.node80 	discovery_latency 	2076
scalar Network400.node80 	number_of_desired_resources 	20
scalar Network400.node80 	query_homogenity_rate 	33.333333333333
scalar Network400.node80 	qrecord_time 	6826
scalar Network400.node80 	discovery_resolution_rate 	33.333333333333
scalar Network400.node320 	rate_of_requesters 	1
scalar Network400.node320 	number_of_resources 	22000
scalar Network400.node320 	time_period 	1
scalar Network400.node320 	number_of_messages 	39
scalar Network400.node320 	discovery_latency 	2076
scalar Network400.node320 	number_of_desired_resources 	20
scalar Network400.node320 	query_homogenity_rate 	33.333333333333
scalar Network400.node320 	qrecord_time 	6826
scalar Network400.node320 	discovery_resolution_rate 	33.333333333333
scalar Network400.node10 	rate_of_requesters 	1
scalar Network400.node10 	number_of_resources 	22000
scalar Network400.node10 	time_period 	1
scalar Network400.node10 	number_of_messages 	13
scalar Network400.node10 	discovery_latency 	2088
scalar Network400.node10 	number_of_desired_resources 	20
scalar Network400.node10 	query_homogenity_rate 	33.333333333333
scalar Network400.node10 	qrecord_time 	6838
scalar Network400.node10 	discovery_resolution_rate 	33.333333333333
scalar Network400.node200 	rate_of_requesters 	1
scalar Network400.node200 	number_of_resources 	22000
scalar Network400.node200 	time_period 	1
scalar Network400.node200 	number_of_messages 	15
scalar Network400.node200 	discovery_latency 	2160
scalar Network400.node200 	number_of_desired_resources 	20
scalar Network400.node200 	query_homogenity_rate 	33.333333333333
scalar Network400.node200 	qrecord_time 	6850
scalar Network400.node200 	discovery_resolution_rate 	33.333333333333
scalar Network400.node350 	rate_of_requesters 	1
scalar Network400.node350 	number_of_resources 	22000
scalar Network400.node350 	time_period 	1
scalar Network400.node350 	number_of_messages 	48
scalar Network400.node350 	discovery_latency 	2088
scalar Network400.node350 	number_of_desired_resources 	20
scalar Network400.node350 	query_homogenity_rate 	33.333333333333
scalar Network400.node350 	qrecord_time 	6856
scalar Network400.node350 	discovery_resolution_rate 	33.333333333333
scalar Network400.node50 	rate_of_requesters 	1
scalar Network400.node50 	number_of_resources 	22000
scalar Network400.node50 	time_period 	1
scalar Network400.node50 	number_of_messages 	20
scalar Network400.node50 	discovery_latency 	2172
scalar Network400.node50 	number_of_desired_resources 	20
scalar Network400.node50 	query_homogenity_rate 	33.333333333333
scalar Network400.node50 	qrecord_time 	6862
scalar Network400.node50 	discovery_resolution_rate 	33.333333333333
scalar Network400.node160 	rate_of_requesters 	1
scalar Network400.node160 	number_of_resources 	22000
scalar Network400.node160 	time_period 	1
scalar Network400.node160 	number_of_messages 	13
scalar Network400.node160 	discovery_latency 	2136
scalar Network400.node160 	number_of_desired_resources 	20
scalar Network400.node160 	query_homogenity_rate 	33.333333333333
scalar Network400.node160 	qrecord_time 	6868
scalar Network400.node160 	discovery_resolution_rate 	33.333333333333
scalar Network400.node370 	rate_of_requesters 	1
scalar Network400.node370 	number_of_resources 	22000
scalar Network400.node370 	time_period 	2
scalar Network400.node370 	number_of_messages 	65
scalar Network400.node370 	discovery_latency 	1920
scalar Network400.node370 	number_of_desired_resources 	20
scalar Network400.node370 	query_homogenity_rate 	33.333333333333
scalar Network400.node370 	qrecord_time 	6879.416038861
scalar Network400.node370 	discovery_resolution_rate 	33.333333333333
scalar Network400.node140 	rate_of_requesters 	1
scalar Network400.node140 	number_of_resources 	22000
scalar Network400.node140 	time_period 	1
scalar Network400.node140 	number_of_messages 	6
scalar Network400.node140 	discovery_latency 	2148
scalar Network400.node140 	number_of_desired_resources 	20
scalar Network400.node140 	query_homogenity_rate 	33.333333333333
scalar Network400.node140 	qrecord_time 	6880
scalar Network400.node140 	discovery_resolution_rate 	33.333333333333
scalar Network400.node130 	rate_of_requesters 	1
scalar Network400.node130 	number_of_resources 	22000
scalar Network400.node130 	time_period 	1
scalar Network400.node130 	number_of_messages 	7
scalar Network400.node130 	discovery_latency 	2112
scalar Network400.node130 	number_of_desired_resources 	20
scalar Network400.node130 	query_homogenity_rate 	33.333333333333
scalar Network400.node130 	qrecord_time 	6892
scalar Network400.node130 	discovery_resolution_rate 	33.333333333333
scalar Network400.node330 	rate_of_requesters 	1
scalar Network400.node330 	number_of_resources 	22000
scalar Network400.node330 	time_period 	1
scalar Network400.node330 	number_of_messages 	24
scalar Network400.node330 	discovery_latency 	2064
scalar Network400.node330 	number_of_desired_resources 	20
scalar Network400.node330 	query_homogenity_rate 	33.333333333333
scalar Network400.node330 	qrecord_time 	6916
scalar Network400.node330 	discovery_resolution_rate 	33.333333333333
scalar Network400.node60 	rate_of_requesters 	1
scalar Network400.node60 	number_of_resources 	22000
scalar Network400.node60 	time_period 	1
scalar Network400.node60 	number_of_messages 	38
scalar Network400.node60 	discovery_latency 	2076
scalar Network400.node60 	number_of_desired_resources 	20
scalar Network400.node60 	query_homogenity_rate 	33.333333333333
scalar Network400.node60 	qrecord_time 	6928
scalar Network400.node60 	discovery_resolution_rate 	33.333333333333
scalar Network400.node20 	rate_of_requesters 	1
scalar Network400.node20 	number_of_resources 	22000
scalar Network400.node20 	time_period 	2
scalar Network400.node20 	number_of_messages 	33
scalar Network400.node20 	discovery_latency 	2088
scalar Network400.node20 	number_of_desired_resources 	20
scalar Network400.node20 	query_homogenity_rate 	33.333333333333
scalar Network400.node20 	qrecord_time 	7015.49337064
scalar Network400.node20 	discovery_resolution_rate 	33.333333333333
scalar Network400.node210 	rate_of_requesters 	1
scalar Network400.node210 	number_of_resources 	22000
scalar Network400.node210 	time_period 	2
scalar Network400.node210 	number_of_messages 	75
scalar Network400.node210 	discovery_latency 	2052
scalar Network400.node210 	number_of_desired_resources 	20
scalar Network400.node210 	query_homogenity_rate 	33.333333333333
scalar Network400.node210 	qrecord_time 	7251.82071443
scalar Network400.node210 	discovery_resolution_rate 	33.333333333333
scalar Network400.node190 	rate_of_requesters 	1
scalar Network400.node190 	number_of_resources 	22000
scalar Network400.node190 	time_period 	2
scalar Network400.node190 	number_of_messages 	63
scalar Network400.node190 	discovery_latency 	2184
scalar Network400.node190 	number_of_desired_resources 	20
scalar Network400.node190 	query_homogenity_rate 	33.333333333333
scalar Network400.node190 	qrecord_time 	7309.031115652
scalar Network400.node190 	discovery_resolution_rate 	33.333333333333
scalar Network400.node310 	rate_of_requesters 	1
scalar Network400.node310 	number_of_resources 	22000
scalar Network400.node310 	time_period 	2
scalar Network400.node310 	number_of_messages 	55
scalar Network400.node310 	discovery_latency 	2076
scalar Network400.node310 	number_of_desired_resources 	20
scalar Network400.node310 	query_homogenity_rate 	33.333333333333
scalar Network400.node310 	qrecord_time 	7358.815648046
scalar Network400.node310 	discovery_resolution_rate 	33.333333333333
scalar Network400.node190 	rate_of_requesters 	1
scalar Network400.node190 	number_of_resources 	22000
scalar Network400.node190 	time_period 	3
scalar Network400.node190 	number_of_messages 	63
scalar Network400.node190 	discovery_latency 	2100
scalar Network400.node190 	number_of_desired_resources 	20
scalar Network400.node190 	query_homogenity_rate 	33.333333333333
scalar Network400.node190 	qrecord_time 	7413.651633658
scalar Network400.node190 	discovery_resolution_rate 	33.333333333333
scalar Network400.node70 	rate_of_requesters 	1
scalar Network400.node70 	number_of_resources 	22000
scalar Network400.node70 	time_period 	2
scalar Network400.node70 	number_of_messages 	43
scalar Network400.node70 	discovery_latency 	2064
scalar Network400.node70 	number_of_desired_resources 	20
scalar Network400.node70 	query_homogenity_rate 	33.333333333333
scalar Network400.node70 	qrecord_time 	7420.87891147
scalar Network400.node70 	discovery_resolution_rate 	33.333333333333
scalar Network400.node0 	rate_of_requesters 	1
scalar Network400.node0 	number_of_resources 	22000
scalar Network400.node0 	time_period 	2
scalar Network400.node0 	number_of_messages 	91
scalar Network400.node0 	discovery_latency 	1884
scalar Network400.node0 	number_of_desired_resources 	20
scalar Network400.node0 	query_homogenity_rate 	33.333333333333
scalar Network400.node0 	qrecord_time 	7510.779988853
scalar Network400.node0 	discovery_resolution_rate 	33.333333333333
scalar Network400.node130 	rate_of_requesters 	1
scalar Network400.node130 	number_of_resources 	22000
scalar Network400.node130 	time_period 	2
scalar Network400.node130 	number_of_messages 	19
scalar Network400.node130 	discovery_latency 	1980
scalar Network400.node130 	number_of_desired_resources 	20
scalar Network400.node130 	query_homogenity_rate 	33.333333333333
scalar Network400.node130 	qrecord_time 	7837.150415208
scalar Network400.node130 	discovery_resolution_rate 	33.333333333333
scalar Network400.node350 	rate_of_requesters 	1
scalar Network400.node350 	number_of_resources 	22000
scalar Network400.node350 	time_period 	2
scalar Network400.node350 	number_of_messages 	18
scalar Network400.node350 	discovery_latency 	2088
scalar Network400.node350 	number_of_desired_resources 	20
scalar Network400.node350 	query_homogenity_rate 	33.333333333333
scalar Network400.node350 	qrecord_time 	7970.406604341
scalar Network400.node350 	discovery_resolution_rate 	33.333333333333
scalar Network400.node60 	rate_of_requesters 	1
scalar Network400.node60 	number_of_resources 	22000
scalar Network400.node60 	time_period 	2
scalar Network400.node60 	number_of_messages 	25
scalar Network400.node60 	discovery_latency 	1956
scalar Network400.node60 	number_of_desired_resources 	20
scalar Network400.node60 	query_homogenity_rate 	33.333333333333
scalar Network400.node60 	qrecord_time 	8167.192722342
scalar Network400.node60 	discovery_resolution_rate 	33.333333333333
scalar Network400.node170 	rate_of_requesters 	1
scalar Network400.node170 	number_of_resources 	22000
scalar Network400.node170 	time_period 	2
scalar Network400.node170 	number_of_messages 	123
scalar Network400.node170 	discovery_latency 	2262
scalar Network400.node170 	number_of_desired_resources 	20
scalar Network400.node170 	query_homogenity_rate 	33.333333333333
scalar Network400.node170 	qrecord_time 	8282.957137784
scalar Network400.node170 	discovery_resolution_rate 	33.333333333333
scalar Network400.node240 	rate_of_requesters 	1
scalar Network400.node240 	number_of_resources 	22000
scalar Network400.node240 	time_period 	2
scalar Network400.node240 	number_of_messages 	44
scalar Network400.node240 	discovery_latency 	2052
scalar Network400.node240 	number_of_desired_resources 	20
scalar Network400.node240 	query_homogenity_rate 	33.333333333333
scalar Network400.node240 	qrecord_time 	8329.678927318
scalar Network400.node240 	discovery_resolution_rate 	33.333333333333
scalar Network400.node150 	rate_of_requesters 	1
scalar Network400.node150 	number_of_resources 	22000
scalar Network400.node150 	time_period 	2
scalar Network400.node150 	number_of_messages 	95
scalar Network400.node150 	discovery_latency 	2040
scalar Network400.node150 	number_of_desired_resources 	20
scalar Network400.node150 	query_homogenity_rate 	33.333333333333
scalar Network400.node150 	qrecord_time 	8341.563971801
scalar Network400.node150 	discovery_resolution_rate 	33.333333333333
scalar Network400.node120 	rate_of_requesters 	1
scalar Network400.node120 	number_of_resources 	22000
scalar Network400.node120 	time_period 	2
scalar Network400.node120 	number_of_messages 	117
scalar Network400.node120 	discovery_latency 	2052
scalar Network400.node120 	number_of_desired_resources 	20
scalar Network400.node120 	query_homogenity_rate 	33.333333333333
scalar Network400.node120 	qrecord_time 	8518.230466452
scalar Network400.node120 	discovery_resolution_rate 	33.333333333333
scalar Network400.node0 	rate_of_requesters 	1
scalar Network400.node0 	number_of_resources 	22000
scalar Network400.node0 	time_period 	3
scalar Network400.node0 	number_of_messages 	112
scalar Network400.node0 	discovery_latency 	2052
scalar Network400.node0 	number_of_desired_resources 	20
scalar Network400.node0 	query_homogenity_rate 	33.333333333333
scalar Network400.node0 	qrecord_time 	8693.896016461
scalar Network400.node0 	discovery_resolution_rate 	33.333333333333
scalar Network400.node70 	rate_of_requesters 	1
scalar Network400.node70 	number_of_resources 	22000
scalar Network400.node70 	time_period 	3
scalar Network400.node70 	number_of_messages 	85
scalar Network400.node70 	discovery_latency 	2148
scalar Network400.node70 	number_of_desired_resources 	20
scalar Network400.node70 	query_homogenity_rate 	33.333333333333
scalar Network400.node70 	qrecord_time 	8904.881079444
scalar Network400.node70 	discovery_resolution_rate 	33.333333333333
scalar Network400.node250 	rate_of_requesters 	1
scalar Network400.node250 	number_of_resources 	22000
scalar Network400.node250 	time_period 	2
scalar Network400.node250 	number_of_messages 	78
scalar Network400.node250 	discovery_latency 	2088
scalar Network400.node250 	number_of_desired_resources 	20
scalar Network400.node250 	query_homogenity_rate 	33.333333333333
scalar Network400.node250 	qrecord_time 	8924.294726799
scalar Network400.node250 	discovery_resolution_rate 	33.333333333333
scalar Network400.node280 	rate_of_requesters 	1
scalar Network400.node280 	number_of_resources 	22000
scalar Network400.node280 	time_period 	2
scalar Network400.node280 	number_of_messages 	89
scalar Network400.node280 	discovery_latency 	2136
scalar Network400.node280 	number_of_desired_resources 	20
scalar Network400.node280 	query_homogenity_rate 	33.333333333333
scalar Network400.node280 	qrecord_time 	9131.447187862
scalar Network400.node280 	discovery_resolution_rate 	33.333333333333
scalar Network400.node280 	rate_of_requesters 	1
scalar Network400.node280 	number_of_resources 	22000
scalar Network400.node280 	time_period 	3
scalar Network400.node280 	number_of_messages 	55
scalar Network400.node280 	discovery_latency 	1968
scalar Network400.node280 	number_of_desired_resources 	20
scalar Network400.node280 	query_homogenity_rate 	33.333333333333
scalar Network400.node280 	qrecord_time 	9161.490327779
scalar Network400.node280 	discovery_resolution_rate 	33.333333333333
scalar Network400.node320 	rate_of_requesters 	1
scalar Network400.node320 	number_of_resources 	22000
scalar Network400.node320 	time_period 	2
scalar Network400.node320 	number_of_messages 	41
scalar Network400.node320 	discovery_latency 	2088
scalar Network400.node320 	number_of_desired_resources 	20
scalar Network400.node320 	query_homogenity_rate 	33.333333333333
scalar Network400.node320 	qrecord_time 	9372.107118196
scalar Network400.node320 	discovery_resolution_rate 	33.333333333333
scalar Network400.node30 	rate_of_requesters 	1
scalar Network400.node30 	number_of_resources 	22000
scalar Network400.node30 	time_period 	2
scalar Network400.node30 	number_of_messages 	38
scalar Network400.node30 	discovery_latency 	1980
scalar Network400.node30 	number_of_desired_resources 	20
scalar Network400.node30 	query_homogenity_rate 	33.333333333333
scalar Network400.node30 	qrecord_time 	9442.196504942
scalar Network400.node30 	discovery_resolution_rate 	33.333333333333
scalar Network400.node110 	rate_of_requesters 	1
scalar Network400.node110 	number_of_resources 	22000
scalar Network400.node110 	time_period 	2
scalar Network400.node110 	number_of_messages 	22
scalar Network400.node110 	discovery_latency 	1752
scalar Network400.node110 	number_of_desired_resources 	20
scalar Network400.node110 	query_homogenity_rate 	33.333333333333
scalar Network400.node110 	qrecord_time 	9556.35291757
scalar Network400.node110 	discovery_resolution_rate 	66.666666666667
scalar Network400.node300 	rate_of_requesters 	1
scalar Network400.node300 	number_of_resources 	22000
scalar Network400.node300 	time_period 	2
scalar Network400.node300 	number_of_messages 	49
scalar Network400.node300 	discovery_latency 	2028
scalar Network400.node300 	number_of_desired_resources 	20
scalar Network400.node300 	query_homogenity_rate 	33.333333333333
scalar Network400.node300 	qrecord_time 	9586.368633274
scalar Network400.node300 	discovery_resolution_rate 	33.333333333333
scalar Network400.node110 	rate_of_requesters 	1
scalar Network400.node110 	number_of_resources 	22000
scalar Network400.node110 	time_period 	3
scalar Network400.node110 	number_of_messages 	7
scalar Network400.node110 	discovery_latency 	2052
scalar Network400.node110 	number_of_desired_resources 	20
scalar Network400.node110 	query_homogenity_rate 	33.333333333333
scalar Network400.node110 	qrecord_time 	9942.733181521
scalar Network400.node110 	discovery_resolution_rate 	33.333333333333
scalar Network400.node20 	rate_of_requesters 	1
scalar Network400.node20 	number_of_resources 	22000
scalar Network400.node20 	time_period 	3
scalar Network400.node20 	number_of_messages 	165
scalar Network400.node20 	discovery_latency 	2910
scalar Network400.node20 	number_of_desired_resources 	20
scalar Network400.node20 	query_homogenity_rate 	33.333333333333
scalar Network400.node20 	qrecord_time 	9980.988452858
scalar Network400.node20 	discovery_resolution_rate 	33.333333333333
scalar Network400.node60 	rate_of_requesters 	1
scalar Network400.node60 	number_of_resources 	22000
scalar Network400.node60 	time_period 	3
scalar Network400.node60 	number_of_messages 	36
scalar Network400.node60 	discovery_latency 	2004
scalar Network400.node60 	number_of_desired_resources 	20
scalar Network400.node60 	query_homogenity_rate 	33.333333333333
scalar Network400.node60 	qrecord_time 	9999.310583848
scalar Network400.node60 	discovery_resolution_rate 	33.333333333333
scalar Network400.node40 	rate_of_requesters 	1
scalar Network400.node40 	number_of_resources 	22000
scalar Network400.node40 	time_period 	2
scalar Network400.node40 	number_of_messages 	36
scalar Network400.node40 	discovery_latency 	2004
scalar Network400.node40 	number_of_desired_resources 	20
scalar Network400.node40 	query_homogenity_rate 	33.333333333333
scalar Network400.node40 	qrecord_time 	10203.980784677
scalar Network400.node40 	discovery_resolution_rate 	33.333333333333
scalar Network400.node260 	rate_of_requesters 	1
scalar Network400.node260 	number_of_resources 	22000
scalar Network400.node260 	time_period 	2
scalar Network400.node260 	number_of_messages 	161
scalar Network400.node260 	discovery_latency 	2886
scalar Network400.node260 	number_of_desired_resources 	20
scalar Network400.node260 	query_homogenity_rate 	33.333333333333
scalar Network400.node260 	qrecord_time 	10263.205539062
scalar Network400.node260 	discovery_resolution_rate 	33.333333333333
scalar Network400.node30 	rate_of_requesters 	1
scalar Network400.node30 	number_of_resources 	22000
scalar Network400.node30 	time_period 	3
scalar Network400.node30 	number_of_messages 	157
scalar Network400.node30 	discovery_latency 	2730
scalar Network400.node30 	number_of_desired_resources 	20
scalar Network400.node30 	query_homogenity_rate 	33.333333333333
scalar Network400.node30 	qrecord_time 	10299.815084413
scalar Network400.node30 	discovery_resolution_rate 	33.333333333333
scalar Network400.node230 	rate_of_requesters 	1
scalar Network400.node230 	number_of_resources 	22000
scalar Network400.node230 	time_period 	2
scalar Network400.node230 	number_of_messages 	101
scalar Network400.node230 	discovery_latency 	2052
scalar Network400.node230 	number_of_desired_resources 	20
scalar Network400.node230 	query_homogenity_rate 	33.333333333333
scalar Network400.node230 	qrecord_time 	10463.370766845
scalar Network400.node230 	discovery_resolution_rate 	33.333333333333
scalar Network400.node310 	rate_of_requesters 	1
scalar Network400.node310 	number_of_resources 	22000
scalar Network400.node310 	time_period 	3
scalar Network400.node310 	number_of_messages 	85
scalar Network400.node310 	discovery_latency 	2016
scalar Network400.node310 	number_of_desired_resources 	20
scalar Network400.node310 	query_homogenity_rate 	33.333333333333
scalar Network400.node310 	qrecord_time 	10543.666221889
scalar Network400.node310 	discovery_resolution_rate 	33.333333333333
scalar Network400.node340 	rate_of_requesters 	1
scalar Network400.node340 	number_of_resources 	22000
scalar Network400.node340 	time_period 	2
scalar Network400.node340 	number_of_messages 	40
scalar Network400.node340 	discovery_latency 	1764
scalar Network400.node340 	number_of_desired_resources 	20
scalar Network400.node340 	query_homogenity_rate 	33.333333333333
scalar Network400.node340 	qrecord_time 	10573.941077514
scalar Network400.node340 	discovery_resolution_rate 	66.666666666667
scalar Network400.node320 	rate_of_requesters 	1
scalar Network400.node320 	number_of_resources 	22000
scalar Network400.node320 	time_period 	4
scalar Network400.node320 	number_of_messages 	15
scalar Network400.node320 	discovery_latency 	1776
scalar Network400.node320 	number_of_desired_resources 	20
scalar Network400.node320 	query_homogenity_rate 	33.333333333333
scalar Network400.node320 	qrecord_time 	10605.151065345
scalar Network400.node320 	discovery_resolution_rate 	66.666666666667
scalar Network400.node80 	rate_of_requesters 	1
scalar Network400.node80 	number_of_resources 	22000
scalar Network400.node80 	time_period 	2
scalar Network400.node80 	number_of_messages 	11
scalar Network400.node80 	discovery_latency 	1788
scalar Network400.node80 	number_of_desired_resources 	20
scalar Network400.node80 	query_homogenity_rate 	33.333333333333
scalar Network400.node80 	qrecord_time 	10863.508191314
scalar Network400.node80 	discovery_resolution_rate 	66.666666666667
scalar Network400.node10 	rate_of_requesters 	1
scalar Network400.node10 	number_of_resources 	22000
scalar Network400.node10 	time_period 	2
scalar Network400.node10 	number_of_messages 	18
scalar Network400.node10 	discovery_latency 	2040
scalar Network400.node10 	number_of_desired_resources 	20
scalar Network400.node10 	query_homogenity_rate 	33.333333333333
scalar Network400.node10 	qrecord_time 	11038.681004553
scalar Network400.node10 	discovery_resolution_rate 	33.333333333333
scalar Network400.node320 	rate_of_requesters 	1
scalar Network400.node320 	number_of_resources 	22000
scalar Network400.node320 	time_period 	3
scalar Network400.node320 	number_of_messages 	173
scalar Network400.node320 	discovery_latency 	3198
scalar Network400.node320 	number_of_desired_resources 	20
scalar Network400.node320 	query_homogenity_rate 	33.333333333333
scalar Network400.node320 	qrecord_time 	11109.177423745
scalar Network400.node320 	discovery_resolution_rate 	16.666666666667
scalar Network400.node230 	rate_of_requesters 	1
scalar Network400.node230 	number_of_resources 	22000
scalar Network400.node230 	time_period 	3
scalar Network400.node230 	number_of_messages 	5
scalar Network400.node230 	discovery_latency 	2076
scalar Network400.node230 	number_of_desired_resources 	20
scalar Network400.node230 	query_homogenity_rate 	33.333333333333
scalar Network400.node230 	qrecord_time 	11142.1823894
scalar Network400.node230 	discovery_resolution_rate 	33.333333333333
scalar Network400.node110 	rate_of_requesters 	1
scalar Network400.node110 	number_of_resources 	22000
scalar Network400.node110 	time_period 	4
scalar Network400.node110 	number_of_messages 	23
scalar Network400.node110 	discovery_latency 	2016
scalar Network400.node110 	number_of_desired_resources 	20
scalar Network400.node110 	query_homogenity_rate 	33.333333333333
scalar Network400.node110 	qrecord_time 	11150.173760526
scalar Network400.node110 	discovery_resolution_rate 	33.333333333333
scalar Network400.node180 	rate_of_requesters 	1
scalar Network400.node180 	number_of_resources 	22000
scalar Network400.node180 	time_period 	2
scalar Network400.node180 	number_of_messages 	20
scalar Network400.node180 	discovery_latency 	2052
scalar Network400.node180 	number_of_desired_resources 	20
scalar Network400.node180 	query_homogenity_rate 	33.333333333333
scalar Network400.node180 	qrecord_time 	11297.229429106
scalar Network400.node180 	discovery_resolution_rate 	33.333333333333
scalar Network400.node70 	rate_of_requesters 	1
scalar Network400.node70 	number_of_resources 	22000
scalar Network400.node70 	time_period 	4
scalar Network400.node70 	number_of_messages 	116
scalar Network400.node70 	discovery_latency 	1992
scalar Network400.node70 	number_of_desired_resources 	20
scalar Network400.node70 	query_homogenity_rate 	33.333333333333
scalar Network400.node70 	qrecord_time 	11323.05807577
scalar Network400.node70 	discovery_resolution_rate 	50
scalar Network400.node110 	rate_of_requesters 	1
scalar Network400.node110 	number_of_resources 	22000
scalar Network400.node110 	time_period 	5
scalar Network400.node110 	number_of_messages 	25
scalar Network400.node110 	discovery_latency 	1776
scalar Network400.node110 	number_of_desired_resources 	20
scalar Network400.node110 	query_homogenity_rate 	33.333333333333
scalar Network400.node110 	qrecord_time 	11472.079195835
scalar Network400.node110 	discovery_resolution_rate 	66.666666666667
scalar Network400.node160 	rate_of_requesters 	1
scalar Network400.node160 	number_of_resources 	22000
scalar Network400.node160 	time_period 	2
scalar Network400.node160 	number_of_messages 	22
scalar Network400.node160 	discovery_latency 	1824
scalar Network400.node160 	number_of_desired_resources 	20
scalar Network400.node160 	query_homogenity_rate 	33.333333333333
scalar Network400.node160 	qrecord_time 	11569.166243445
scalar Network400.node160 	discovery_resolution_rate 	66.666666666667
scalar Network400.node70 	rate_of_requesters 	1
scalar Network400.node70 	number_of_resources 	22000
scalar Network400.node70 	time_period 	5
scalar Network400.node70 	number_of_messages 	21
scalar Network400.node70 	discovery_latency 	1836
scalar Network400.node70 	number_of_desired_resources 	20
scalar Network400.node70 	query_homogenity_rate 	33.333333333333
scalar Network400.node70 	qrecord_time 	11638.929528664
scalar Network400.node70 	discovery_resolution_rate 	66.666666666667
scalar Network400.node40 	rate_of_requesters 	1
scalar Network400.node40 	number_of_resources 	22000
scalar Network400.node40 	time_period 	3
scalar Network400.node40 	number_of_messages 	29
scalar Network400.node40 	discovery_latency 	1824
scalar Network400.node40 	number_of_desired_resources 	20
scalar Network400.node40 	query_homogenity_rate 	33.333333333333
scalar Network400.node40 	qrecord_time 	11641.528620025
scalar Network400.node40 	discovery_resolution_rate 	66.666666666667
scalar Network400.node90 	rate_of_requesters 	1
scalar Network400.node90 	number_of_resources 	22000
scalar Network400.node90 	time_period 	2
scalar Network400.node90 	number_of_messages 	18
scalar Network400.node90 	discovery_latency 	2100
scalar Network400.node90 	number_of_desired_resources 	20
scalar Network400.node90 	query_homogenity_rate 	33.333333333333
scalar Network400.node90 	qrecord_time 	11673.755574513
scalar Network400.node90 	discovery_resolution_rate 	33.333333333333
scalar Network400.node50 	rate_of_requesters 	1
scalar Network400.node50 	number_of_resources 	22000
scalar Network400.node50 	time_period 	2
scalar Network400.node50 	number_of_messages 	15
scalar Network400.node50 	discovery_latency 	1920
scalar Network400.node50 	number_of_desired_resources 	20
scalar Network400.node50 	query_homogenity_rate 	33.333333333333
scalar Network400.node50 	qrecord_time 	11830.242761363
scalar Network400.node50 	discovery_resolution_rate 	33.333333333333
scalar Network400.node170 	rate_of_requesters 	1
scalar Network400.node170 	number_of_resources 	22000
scalar Network400.node170 	time_period 	3
scalar Network400.node170 	number_of_messages 	11
scalar Network400.node170 	discovery_latency 	1980
scalar Network400.node170 	number_of_desired_resources 	20
scalar Network400.node170 	query_homogenity_rate 	33.333333333333
scalar Network400.node170 	qrecord_time 	11834.606050758
scalar Network400.node170 	discovery_resolution_rate 	33.333333333333
scalar Network400.node380 	rate_of_requesters 	1
scalar Network400.node380 	number_of_resources 	22000
scalar Network400.node380 	time_period 	2
scalar Network400.node380 	number_of_messages 	8
scalar Network400.node380 	discovery_latency 	2076
scalar Network400.node380 	number_of_desired_resources 	20
scalar Network400.node380 	query_homogenity_rate 	33.333333333333
scalar Network400.node380 	qrecord_time 	12116.575833817
scalar Network400.node380 	discovery_resolution_rate 	33.333333333333
scalar Network400.node60 	rate_of_requesters 	1
scalar Network400.node60 	number_of_resources 	22000
scalar Network400.node60 	time_period 	4
scalar Network400.node60 	number_of_messages 	6
scalar Network400.node60 	discovery_latency 	1992
scalar Network400.node60 	number_of_desired_resources 	20
scalar Network400.node60 	query_homogenity_rate 	33.333333333333
scalar Network400.node60 	qrecord_time 	12127.576123519
scalar Network400.node60 	discovery_resolution_rate 	33.333333333333
scalar Network400.node220 	rate_of_requesters 	1
scalar Network400.node220 	number_of_resources 	22000
scalar Network400.node220 	time_period 	2
scalar Network400.node220 	number_of_messages 	22
scalar Network400.node220 	discovery_latency 	1980
scalar Network400.node220 	number_of_desired_resources 	20
scalar Network400.node220 	query_homogenity_rate 	33.333333333333
scalar Network400.node220 	qrecord_time 	12127.745396718
scalar Network400.node220 	discovery_resolution_rate 	33.333333333333
scalar Network400.node290 	rate_of_requesters 	1
scalar Network400.node290 	number_of_resources 	22000
scalar Network400.node290 	time_period 	2
scalar Network400.node290 	number_of_messages 	23
scalar Network400.node290 	discovery_latency 	2064
scalar Network400.node290 	number_of_desired_resources 	20
scalar Network400.node290 	query_homogenity_rate 	33.333333333333
scalar Network400.node290 	qrecord_time 	12193.408562082
scalar Network400.node290 	discovery_resolution_rate 	33.333333333333
scalar Network400.node0 	rate_of_requesters 	1
scalar Network400.node0 	number_of_resources 	22000
scalar Network400.node0 	time_period 	4
scalar Network400.node0 	number_of_messages 	37
scalar Network400.node0 	discovery_latency 	1812
scalar Network400.node0 	number_of_desired_resources 	20
scalar Network400.node0 	query_homogenity_rate 	33.333333333333
scalar Network400.node0 	qrecord_time 	12397.497929243
scalar Network400.node0 	discovery_resolution_rate 	66.666666666667
scalar Network400.node100 	rate_of_requesters 	1
scalar Network400.node100 	number_of_resources 	22000
scalar Network400.node100 	time_period 	3
scalar Network400.node100 	number_of_messages 	24
scalar Network400.node100 	discovery_latency 	1836
scalar Network400.node100 	number_of_desired_resources 	20
scalar Network400.node100 	query_homogenity_rate 	33.333333333333
scalar Network400.node100 	qrecord_time 	12601.32553903
scalar Network400.node100 	discovery_resolution_rate 	66.666666666667
scalar Network400.node370 	rate_of_requesters 	1
scalar Network400.node370 	number_of_resources 	22000
scalar Network400.node370 	time_period 	3
scalar Network400.node370 	number_of_messages 	44
scalar Network400.node370 	discovery_latency 	2064
scalar Network400.node370 	number_of_desired_resources 	20
scalar Network400.node370 	query_homogenity_rate 	33.333333333333
scalar Network400.node370 	qrecord_time 	12610.155409102
scalar Network400.node370 	discovery_resolution_rate 	33.333333333333
scalar Network400.node200 	rate_of_requesters 	1
scalar Network400.node200 	number_of_resources 	22000
scalar Network400.node200 	time_period 	2
scalar Network400.node200 	number_of_messages 	9
scalar Network400.node200 	discovery_latency 	2052
scalar Network400.node200 	number_of_desired_resources 	20
scalar Network400.node200 	query_homogenity_rate 	33.333333333333
scalar Network400.node200 	qrecord_time 	12655.702414908
scalar Network400.node200 	discovery_resolution_rate 	33.333333333333
scalar Network400.node100 	rate_of_requesters 	1
scalar Network400.node100 	number_of_resources 	22000
scalar Network400.node100 	time_period 	2
scalar Network400.node100 	number_of_messages 	11
scalar Network400.node100 	discovery_latency 	2124
scalar Network400.node100 	number_of_desired_resources 	20
scalar Network400.node100 	query_homogenity_rate 	33.333333333333
scalar Network400.node100 	qrecord_time 	12732.125033053
scalar Network400.node100 	discovery_resolution_rate 	33.333333333333
scalar Network400.node390 	rate_of_requesters 	1
scalar Network400.node390 	number_of_resources 	22000
scalar Network400.node390 	time_period 	2
scalar Network400.node390 	number_of_messages 	5
scalar Network400.node390 	discovery_latency 	2124
scalar Network400.node390 	number_of_desired_resources 	20
scalar Network400.node390 	query_homogenity_rate 	33.333333333333
scalar Network400.node390 	qrecord_time 	12853.529057846
scalar Network400.node390 	discovery_resolution_rate 	33.333333333333
scalar Network400.node110 	rate_of_requesters 	1
scalar Network400.node110 	number_of_resources 	22000
scalar Network400.node110 	time_period 	6
scalar Network400.node110 	number_of_messages 	28
scalar Network400.node110 	discovery_latency 	1992
scalar Network400.node110 	number_of_desired_resources 	20
scalar Network400.node110 	query_homogenity_rate 	33.333333333333
scalar Network400.node110 	qrecord_time 	12972.813623462
scalar Network400.node110 	discovery_resolution_rate 	33.333333333333
scalar Network400.node370 	rate_of_requesters 	1
scalar Network400.node370 	number_of_resources 	22000
scalar Network400.node370 	time_period 	4
scalar Network400.node370 	number_of_messages 	4
scalar Network400.node370 	discovery_latency 	2004
scalar Network400.node370 	number_of_desired_resources 	20
scalar Network400.node370 	query_homogenity_rate 	33.333333333333
scalar Network400.node370 	qrecord_time 	13146.492214274
scalar Network400.node370 	discovery_resolution_rate 	33.333333333333
scalar Network400.node140 	rate_of_requesters 	1
scalar Network400.node140 	number_of_resources 	22000
scalar Network400.node140 	time_period 	2
scalar Network400.node140 	number_of_messages 	12
scalar Network400.node140 	discovery_latency 	2028
scalar Network400.node140 	number_of_desired_resources 	20
scalar Network400.node140 	query_homogenity_rate 	33.333333333333
scalar Network400.node140 	qrecord_time 	13471.200877634
scalar Network400.node140 	discovery_resolution_rate 	33.333333333333
scalar Network400.node130 	rate_of_requesters 	1
scalar Network400.node130 	number_of_resources 	22000
scalar Network400.node130 	time_period 	3
scalar Network400.node130 	number_of_messages 	6
scalar Network400.node130 	discovery_latency 	2064
scalar Network400.node130 	number_of_desired_resources 	20
scalar Network400.node130 	query_homogenity_rate 	33.333333333333
scalar Network400.node130 	qrecord_time 	13515.752278215
scalar Network400.node130 	discovery_resolution_rate 	33.333333333333
scalar Network400.node260 	rate_of_requesters 	1
scalar Network400.node260 	number_of_resources 	22000
scalar Network400.node260 	time_period 	3
scalar Network400.node260 	number_of_messages 	11
scalar Network400.node260 	discovery_latency 	1776
scalar Network400.node260 	number_of_desired_resources 	20
scalar Network400.node260 	query_homogenity_rate 	33.333333333333
scalar Network400.node260 	qrecord_time 	13528.528704688
scalar Network400.node260 	discovery_resolution_rate 	66.666666666667
scalar Network400.node200 	rate_of_requesters 	1
scalar Network400.node200 	number_of_resources 	22000
scalar Network400.node200 	time_period 	4
scalar Network400.node200 	number_of_messages 	11
scalar Network400.node200 	discovery_latency 	2004
scalar Network400.node200 	number_of_desired_resources 	20
scalar Network400.node200 	query_homogenity_rate 	33.333333333333
scalar Network400.node200 	qrecord_time 	13629.957385557
scalar Network400.node200 	discovery_resolution_rate 	33.333333333333
scalar Network400.node200 	rate_of_requesters 	1
scalar Network400.node200 	number_of_resources 	22000
scalar Network400.node200 	time_period 	3
scalar Network400.node200 	number_of_messages 	9
scalar Network400.node200 	discovery_latency 	2052
scalar Network400.node200 	number_of_desired_resources 	20
scalar Network400.node200 	query_homogenity_rate 	33.333333333333
scalar Network400.node200 	qrecord_time 	13647.182905764
scalar Network400.node200 	discovery_resolution_rate 	33.333333333333
scalar Network400.node120 	rate_of_requesters 	1
scalar Network400.node120 	number_of_resources 	22000
scalar Network400.node120 	time_period 	3
scalar Network400.node120 	number_of_messages 	10
scalar Network400.node120 	discovery_latency 	2088
scalar Network400.node120 	number_of_desired_resources 	20
scalar Network400.node120 	query_homogenity_rate 	33.333333333333
scalar Network400.node120 	qrecord_time 	13648.511460177
scalar Network400.node120 	discovery_resolution_rate 	33.333333333333
scalar Network400.node230 	rate_of_requesters 	1
scalar Network400.node230 	number_of_resources 	22000
scalar Network400.node230 	time_period 	4
scalar Network400.node230 	number_of_messages 	5
scalar Network400.node230 	discovery_latency 	2064
scalar Network400.node230 	number_of_desired_resources 	20
scalar Network400.node230 	query_homogenity_rate 	33.333333333333
scalar Network400.node230 	qrecord_time 	13812.037404589
scalar Network400.node230 	discovery_resolution_rate 	33.333333333333
scalar Network400.node80 	rate_of_requesters 	1
scalar Network400.node80 	number_of_resources 	22000
scalar Network400.node80 	time_period 	3
scalar Network400.node80 	number_of_messages 	34
scalar Network400.node80 	discovery_latency 	1788
scalar Network400.node80 	number_of_desired_resources 	20
scalar Network400.node80 	query_homogenity_rate 	33.333333333333
scalar Network400.node80 	qrecord_time 	14096.675769509
scalar Network400.node80 	discovery_resolution_rate 	66.666666666667
scalar Network400.node110 	rate_of_requesters 	1
scalar Network400.node110 	number_of_resources 	22000
scalar Network400.node110 	time_period 	7
scalar Network400.node110 	number_of_messages 	17
scalar Network400.node110 	discovery_latency 	2076
scalar Network400.node110 	number_of_desired_resources 	20
scalar Network400.node110 	query_homogenity_rate 	33.333333333333
scalar Network400.node110 	qrecord_time 	14246.146858553
scalar Network400.node110 	discovery_resolution_rate 	33.333333333333
scalar Network400.node20 	rate_of_requesters 	1
scalar Network400.node20 	number_of_resources 	22000
scalar Network400.node20 	time_period 	4
scalar Network400.node20 	number_of_messages 	19
scalar Network400.node20 	discovery_latency 	1824
scalar Network400.node20 	number_of_desired_resources 	20
scalar Network400.node20 	query_homogenity_rate 	33.333333333333
scalar Network400.node20 	qrecord_time 	14334.751424941
scalar Network400.node20 	discovery_resolution_rate 	66.666666666667
scalar Network400.node80 	rate_of_requesters 	1
scalar Network400.node80 	number_of_resources 	22000
scalar Network400.node80 	time_period 	4
scalar Network400.node80 	number_of_messages 	23
scalar Network400.node80 	discovery_latency 	2112
scalar Network400.node80 	number_of_desired_resources 	20
scalar Network400.node80 	query_homogenity_rate 	33.333333333333
scalar Network400.node80 	qrecord_time 	14453.363277295
scalar Network400.node80 	discovery_resolution_rate 	33.333333333333
scalar Network400.node390 	rate_of_requesters 	1
scalar Network400.node390 	number_of_resources 	22000
scalar Network400.node390 	time_period 	3
scalar Network400.node390 	number_of_messages 	5
scalar Network400.node390 	discovery_latency 	2124
scalar Network400.node390 	number_of_desired_resources 	20
scalar Network400.node390 	query_homogenity_rate 	33.333333333333
scalar Network400.node390 	qrecord_time 	14621.896711151
scalar Network400.node390 	discovery_resolution_rate 	33.333333333333
scalar Network400.node310 	rate_of_requesters 	1
scalar Network400.node310 	number_of_resources 	22000
scalar Network400.node310 	time_period 	4
scalar Network400.node310 	number_of_messages 	7
scalar Network400.node310 	discovery_latency 	2124
scalar Network400.node310 	number_of_desired_resources 	20
scalar Network400.node310 	query_homogenity_rate 	33.333333333333
scalar Network400.node310 	qrecord_time 	14751.726565279
scalar Network400.node310 	discovery_resolution_rate 	33.333333333333
scalar Network400.node200 	rate_of_requesters 	1
scalar Network400.node200 	number_of_resources 	22000
scalar Network400.node200 	time_period 	5
scalar Network400.node200 	number_of_messages 	15
scalar Network400.node200 	discovery_latency 	2124
scalar Network400.node200 	number_of_desired_resources 	20
scalar Network400.node200 	query_homogenity_rate 	33.333333333333
scalar Network400.node200 	qrecord_time 	14781.438845353
scalar Network400.node200 	discovery_resolution_rate 	33.333333333333
scalar Network400.node70 	rate_of_requesters 	1
scalar Network400.node70 	number_of_resources 	22000
scalar Network400.node70 	time_period 	6
scalar Network400.node70 	number_of_messages 	6
scalar Network400.node70 	discovery_latency 	1980
scalar Network400.node70 	number_of_desired_resources 	20
scalar Network400.node70 	query_homogenity_rate 	33.333333333333
scalar Network400.node70 	qrecord_time 	14812.824168089
scalar Network400.node70 	discovery_resolution_rate 	33.333333333333
scalar Network400.node260 	rate_of_requesters 	1
scalar Network400.node260 	number_of_resources 	22000
scalar Network400.node260 	time_period 	4
scalar Network400.node260 	number_of_messages 	13
scalar Network400.node260 	discovery_latency 	1908
scalar Network400.node260 	number_of_desired_resources 	20
scalar Network400.node260 	query_homogenity_rate 	33.333333333333
scalar Network400.node260 	qrecord_time 	14932.086744008
scalar Network400.node260 	discovery_resolution_rate 	33.333333333333
scalar Network400.node50 	rate_of_requesters 	1
scalar Network400.node50 	number_of_resources 	22000
scalar Network400.node50 	time_period 	3
scalar Network400.node50 	number_of_messages 	40
scalar Network400.node50 	discovery_latency 	1848
scalar Network400.node50 	number_of_desired_resources 	20
scalar Network400.node50 	query_homogenity_rate 	33.333333333333
scalar Network400.node50 	qrecord_time 	15186.711093567
scalar Network400.node50 	discovery_resolution_rate 	66.666666666667
scalar Network400.node190 	rate_of_requesters 	1
scalar Network400.node190 	number_of_resources 	22000
scalar Network400.node190 	time_period 	4
scalar Network400.node190 	number_of_messages 	14
scalar Network400.node190 	discovery_latency 	1872
scalar Network400.node190 	number_of_desired_resources 	20
scalar Network400.node190 	query_homogenity_rate 	33.333333333333
scalar Network400.node190 	qrecord_time 	15232.74720227
scalar Network400.node190 	discovery_resolution_rate 	66.666666666667
scalar Network400.node350 	rate_of_requesters 	1
scalar Network400.node350 	number_of_resources 	22000
scalar Network400.node350 	time_period 	3
scalar Network400.node350 	number_of_messages 	110
scalar Network400.node350 	discovery_latency 	2088
scalar Network400.node350 	number_of_desired_resources 	20
scalar Network400.node350 	query_homogenity_rate 	33.333333333333
scalar Network400.node350 	qrecord_time 	15501.539544121
scalar Network400.node350 	discovery_resolution_rate 	50
scalar Network400.node250 	rate_of_requesters 	1
scalar Network400.node250 	number_of_resources 	22000
scalar Network400.node250 	time_period 	4
scalar Network400.node250 	number_of_messages 	23
scalar Network400.node250 	discovery_latency 	1932
scalar Network400.node250 	number_of_desired_resources 	20
scalar Network400.node250 	query_homogenity_rate 	33.333333333333
scalar Network400.node250 	qrecord_time 	15599.80140241
scalar Network400.node250 	discovery_resolution_rate 	33.333333333333
scalar Network400.node250 	rate_of_requesters 	1
scalar Network400.node250 	number_of_resources 	22000
scalar Network400.node250 	time_period 	3
scalar Network400.node250 	number_of_messages 	13
scalar Network400.node250 	discovery_latency 	2028
scalar Network400.node250 	number_of_desired_resources 	20
scalar Network400.node250 	query_homogenity_rate 	33.333333333333
scalar Network400.node250 	qrecord_time 	15686.225953
scalar Network400.node250 	discovery_resolution_rate 	33.333333333333
scalar Network400.node150 	rate_of_requesters 	1
scalar Network400.node150 	number_of_resources 	22000
scalar Network400.node150 	time_period 	3
scalar Network400.node150 	number_of_messages 	6
scalar Network400.node150 	discovery_latency 	2076
scalar Network400.node150 	number_of_desired_resources 	20
scalar Network400.node150 	query_homogenity_rate 	33.333333333333
scalar Network400.node150 	qrecord_time 	15885.932492711
scalar Network400.node150 	discovery_resolution_rate 	33.333333333333
scalar Network400.node140 	rate_of_requesters 	1
scalar Network400.node140 	number_of_resources 	22000
scalar Network400.node140 	time_period 	3
scalar Network400.node140 	number_of_messages 	24
scalar Network400.node140 	discovery_latency 	1776
scalar Network400.node140 	number_of_desired_resources 	20
scalar Network400.node140 	query_homogenity_rate 	33.333333333333
scalar Network400.node140 	qrecord_time 	15966.175959362
scalar Network400.node140 	discovery_resolution_rate 	66.666666666667
scalar Network400.node310 	rate_of_requesters 	1
scalar Network400.node310 	number_of_resources 	22000
scalar Network400.node310 	time_period 	5
scalar Network400.node310 	number_of_messages 	12
scalar Network400.node310 	discovery_latency 	1764
scalar Network400.node310 	number_of_desired_resources 	20
scalar Network400.node310 	query_homogenity_rate 	33.333333333333
scalar Network400.node310 	qrecord_time 	16154.829115937
scalar Network400.node310 	discovery_resolution_rate 	66.666666666667
scalar Network400.node90 	rate_of_requesters 	1
scalar Network400.node90 	number_of_resources 	22000
scalar Network400.node90 	time_period 	3
scalar Network400.node90 	number_of_messages 	22
scalar Network400.node90 	discovery_latency 	1788
scalar Network400.node90 	number_of_desired_resources 	20
scalar Network400.node90 	query_homogenity_rate 	33.333333333333
scalar Network400.node90 	qrecord_time 	16225.961755241
scalar Network400.node90 	discovery_resolution_rate 	66.666666666667
scalar Network400.node130 	rate_of_requesters 	1
scalar Network400.node130 	number_of_resources 	22000
scalar Network400.node130 	time_period 	4
scalar Network400.node130 	number_of_messages 	6
scalar Network400.node130 	discovery_latency 	1968
scalar Network400.node130 	number_of_desired_resources 	20
scalar Network400.node130 	query_homogenity_rate 	33.333333333333
scalar Network400.node130 	qrecord_time 	16324.84328043
scalar Network400.node130 	discovery_resolution_rate 	33.333333333333
scalar Network400.node250 	rate_of_requesters 	1
scalar Network400.node250 	number_of_resources 	22000
scalar Network400.node250 	time_period 	5
scalar Network400.node250 	number_of_messages 	8
scalar Network400.node250 	discovery_latency 	1932
scalar Network400.node250 	number_of_desired_resources 	20
scalar Network400.node250 	query_homogenity_rate 	33.333333333333
scalar Network400.node250 	qrecord_time 	16420.691141135
scalar Network400.node250 	discovery_resolution_rate 	33.333333333333
scalar Network400.node310 	rate_of_requesters 	1
scalar Network400.node310 	number_of_resources 	22000
scalar Network400.node310 	time_period 	7
scalar Network400.node310 	number_of_messages 	19
scalar Network400.node310 	discovery_latency 	1920
scalar Network400.node310 	number_of_desired_resources 	20
scalar Network400.node310 	query_homogenity_rate 	33.333333333333
scalar Network400.node310 	qrecord_time 	16472.39355324
scalar Network400.node310 	discovery_resolution_rate 	33.333333333333
scalar Network400.node290 	rate_of_requesters 	1
scalar Network400.node290 	number_of_resources 	22000
scalar Network400.node290 	time_period 	3
scalar Network400.node290 	number_of_messages 	6
scalar Network400.node290 	discovery_latency 	1980
scalar Network400.node290 	number_of_desired_resources 	20
scalar Network400.node290 	query_homogenity_rate 	33.333333333333
scalar Network400.node290 	qrecord_time 	16506.088137072
scalar Network400.node290 	discovery_resolution_rate 	33.333333333333
scalar Network400.node310 	rate_of_requesters 	1
scalar Network400.node310 	number_of_resources 	22000
scalar Network400.node310 	time_period 	6
scalar Network400.node310 	number_of_messages 	12
scalar Network400.node310 	discovery_latency 	2064
scalar Network400.node310 	number_of_desired_resources 	20
scalar Network400.node310 	query_homogenity_rate 	33.333333333333
scalar Network400.node310 	qrecord_time 	16558.832869882
scalar Network400.node310 	discovery_resolution_rate 	33.333333333333
scalar Network400.node20 	rate_of_requesters 	1
scalar Network400.node20 	number_of_resources 	22000
scalar Network400.node20 	time_period 	5
scalar Network400.node20 	number_of_messages 	28
scalar Network400.node20 	discovery_latency 	1776
scalar Network400.node20 	number_of_desired_resources 	20
scalar Network400.node20 	query_homogenity_rate 	33.333333333333
scalar Network400.node20 	qrecord_time 	16605.036675661
scalar Network400.node20 	discovery_resolution_rate 	66.666666666667
scalar Network400.node150 	rate_of_requesters 	1
scalar Network400.node150 	number_of_resources 	22000
scalar Network400.node150 	time_period 	4
scalar Network400.node150 	number_of_messages 	4
scalar Network400.node150 	discovery_latency 	2028
scalar Network400.node150 	number_of_desired_resources 	20
scalar Network400.node150 	query_homogenity_rate 	33.333333333333
scalar Network400.node150 	qrecord_time 	16620.861904662
scalar Network400.node150 	discovery_resolution_rate 	33.333333333333
scalar Network400.node60 	rate_of_requesters 	1
scalar Network400.node60 	number_of_resources 	22000
scalar Network400.node60 	time_period 	5
scalar Network400.node60 	number_of_messages 	98
scalar Network400.node60 	discovery_latency 	2076
scalar Network400.node60 	number_of_desired_resources 	20
scalar Network400.node60 	query_homogenity_rate 	33.333333333333
scalar Network400.node60 	qrecord_time 	16674.121507801
scalar Network400.node60 	discovery_resolution_rate 	50
scalar Network400.node160 	rate_of_requesters 	1
scalar Network400.node160 	number_of_resources 	22000
scalar Network400.node160 	time_period 	3
scalar Network400.node160 	number_of_messages 	6
scalar Network400.node160 	discovery_latency 	2016
scalar Network400.node160 	number_of_desired_resources 	20
scalar Network400.node160 	query_homogenity_rate 	33.333333333333
scalar Network400.node160 	qrecord_time 	16695.642646867
scalar Network400.node160 	discovery_resolution_rate 	33.333333333333
scalar Network400.node300 	rate_of_requesters 	1
scalar Network400.node300 	number_of_resources 	22000
scalar Network400.node300 	time_period 	3
scalar Network400.node300 	number_of_messages 	10
scalar Network400.node300 	discovery_latency 	2040
scalar Network400.node300 	number_of_desired_resources 	20
scalar Network400.node300 	query_homogenity_rate 	33.333333333333
scalar Network400.node300 	qrecord_time 	16899.375659282
scalar Network400.node300 	discovery_resolution_rate 	33.333333333333
scalar Network400.node360 	rate_of_requesters 	1
scalar Network400.node360 	number_of_resources 	22000
scalar Network400.node360 	time_period 	2
scalar Network400.node360 	number_of_messages 	6
scalar Network400.node360 	discovery_latency 	2040
scalar Network400.node360 	number_of_desired_resources 	20
scalar Network400.node360 	query_homogenity_rate 	33.333333333333
scalar Network400.node360 	qrecord_time 	17008.820877522
scalar Network400.node360 	discovery_resolution_rate 	33.333333333333
scalar Network400.node10 	rate_of_requesters 	1
scalar Network400.node10 	number_of_resources 	22000
scalar Network400.node10 	time_period 	3
scalar Network400.node10 	number_of_messages 	10
scalar Network400.node10 	discovery_latency 	2016
scalar Network400.node10 	number_of_desired_resources 	20
scalar Network400.node10 	query_homogenity_rate 	33.333333333333
scalar Network400.node10 	qrecord_time 	17096.33800188
scalar Network400.node10 	discovery_resolution_rate 	33.333333333333
scalar Network400.node390 	rate_of_requesters 	1
scalar Network400.node390 	number_of_resources 	22000
scalar Network400.node390 	time_period 	4
scalar Network400.node390 	number_of_messages 	5
scalar Network400.node390 	discovery_latency 	2016
scalar Network400.node390 	number_of_desired_resources 	20
scalar Network400.node390 	query_homogenity_rate 	33.333333333333
scalar Network400.node390 	qrecord_time 	17116.844325447
scalar Network400.node390 	discovery_resolution_rate 	33.333333333333
scalar Network400.node160 	rate_of_requesters 	1
scalar Network400.node160 	number_of_resources 	22000
scalar Network400.node160 	time_period 	4
scalar Network400.node160 	number_of_messages 	12
scalar Network400.node160 	discovery_latency 	2016
scalar Network400.node160 	number_of_desired_resources 	20
scalar Network400.node160 	query_homogenity_rate 	33.333333333333
scalar Network400.node160 	qrecord_time 	17334.237668498
scalar Network400.node160 	discovery_resolution_rate 	33.333333333333
scalar Network400.node50 	rate_of_requesters 	1
scalar Network400.node50 	number_of_resources 	22000
scalar Network400.node50 	time_period 	4
scalar Network400.node50 	number_of_messages 	16
scalar Network400.node50 	discovery_latency 	1848
scalar Network400.node50 	number_of_desired_resources 	20
scalar Network400.node50 	query_homogenity_rate 	33.333333333333
scalar Network400.node50 	qrecord_time 	17453.539883467
scalar Network400.node50 	discovery_resolution_rate 	66.666666666667
scalar Network400.node0 	rate_of_requesters 	1
scalar Network400.node0 	number_of_resources 	22000
scalar Network400.node0 	time_period 	5
scalar Network400.node0 	number_of_messages 	98
scalar Network400.node0 	discovery_latency 	1980
scalar Network400.node0 	number_of_desired_resources 	20
scalar Network400.node0 	query_homogenity_rate 	33.333333333333
scalar Network400.node0 	qrecord_time 	17467.630857255
scalar Network400.node0 	discovery_resolution_rate 	50
scalar Network400.node330 	rate_of_requesters 	1
scalar Network400.node330 	number_of_resources 	22000
scalar Network400.node330 	time_period 	2
scalar Network400.node330 	number_of_messages 	103
scalar Network400.node330 	discovery_latency 	2004
scalar Network400.node330 	number_of_desired_resources 	20
scalar Network400.node330 	query_homogenity_rate 	33.333333333333
scalar Network400.node330 	qrecord_time 	17676.632205966
scalar Network400.node330 	discovery_resolution_rate 	50
scalar Network400.node250 	rate_of_requesters 	1
scalar Network400.node250 	number_of_resources 	22000
scalar Network400.node250 	time_period 	6
scalar Network400.node250 	number_of_messages 	7
scalar Network400.node250 	discovery_latency 	2004
scalar Network400.node250 	number_of_desired_resources 	20
scalar Network400.node250 	query_homogenity_rate 	33.333333333333
scalar Network400.node250 	qrecord_time 	17718.774604486
scalar Network400.node250 	discovery_resolution_rate 	33.333333333333
scalar Network400.node100 	rate_of_requesters 	1
scalar Network400.node100 	number_of_resources 	22000
scalar Network400.node100 	time_period 	4
scalar Network400.node100 	number_of_messages 	6
scalar Network400.node100 	discovery_latency 	2076
scalar Network400.node100 	number_of_desired_resources 	20
scalar Network400.node100 	query_homogenity_rate 	33.333333333333
scalar Network400.node100 	qrecord_time 	17744.197011617
scalar Network400.node100 	discovery_resolution_rate 	33.333333333333
scalar Network400.node20 	rate_of_requesters 	1
scalar Network400.node20 	number_of_resources 	22000
scalar Network400.node20 	time_period 	6
scalar Network400.node20 	number_of_messages 	9
scalar Network400.node20 	discovery_latency 	2052
scalar Network400.node20 	number_of_desired_resources 	20
scalar Network400.node20 	query_homogenity_rate 	33.333333333333
scalar Network400.node20 	qrecord_time 	17746.754902416
scalar Network400.node20 	discovery_resolution_rate 	33.333333333333
scalar Network400.node210 	rate_of_requesters 	1
scalar Network400.node210 	number_of_resources 	22000
scalar Network400.node210 	time_period 	3
scalar Network400.node210 	number_of_messages 	12
scalar Network400.node210 	discovery_latency 	1980
scalar Network400.node210 	number_of_desired_resources 	20
scalar Network400.node210 	query_homogenity_rate 	33.333333333333
scalar Network400.node210 	qrecord_time 	17853.297420876
scalar Network400.node210 	discovery_resolution_rate 	33.333333333333
scalar Network400.node160 	rate_of_requesters 	1
scalar Network400.node160 	number_of_resources 	22000
scalar Network400.node160 	time_period 	5
scalar Network400.node160 	number_of_messages 	13
scalar Network400.node160 	discovery_latency 	1944
scalar Network400.node160 	number_of_desired_resources 	20
scalar Network400.node160 	query_homogenity_rate 	33.333333333333
scalar Network400.node160 	qrecord_time 	17860.979025604
scalar Network400.node160 	discovery_resolution_rate 	33.333333333333
scalar Network400.node50 	rate_of_requesters 	1
scalar Network400.node50 	number_of_resources 	22000
scalar Network400.node50 	time_period 	5
scalar Network400.node50 	number_of_messages 	15
scalar Network400.node50 	discovery_latency 	1908
scalar Network400.node50 	number_of_desired_resources 	20
scalar Network400.node50 	query_homogenity_rate 	33.333333333333
scalar Network400.node50 	qrecord_time 	17959.843440403
scalar Network400.node50 	discovery_resolution_rate 	33.333333333333
scalar Network400.node0 	rate_of_requesters 	1
scalar Network400.node0 	number_of_resources 	22000
scalar Network400.node0 	time_period 	6
scalar Network400.node0 	number_of_messages 	13
scalar Network400.node0 	discovery_latency 	2040
scalar Network400.node0 	number_of_desired_resources 	20
scalar Network400.node0 	query_homogenity_rate 	33.333333333333
scalar Network400.node0 	qrecord_time 	18052.277814199
scalar Network400.node0 	discovery_resolution_rate 	33.333333333333
scalar Network400.node30 	rate_of_requesters 	1
scalar Network400.node30 	number_of_resources 	22000
scalar Network400.node30 	time_period 	4
scalar Network400.node30 	number_of_messages 	18
scalar Network400.node30 	discovery_latency 	1944
scalar Network400.node30 	number_of_desired_resources 	20
scalar Network400.node30 	query_homogenity_rate 	33.333333333333
scalar Network400.node30 	qrecord_time 	18114.315761103
scalar Network400.node30 	discovery_resolution_rate 	33.333333333333
scalar Network400.node90 	rate_of_requesters 	1
scalar Network400.node90 	number_of_resources 	22000
scalar Network400.node90 	time_period 	4
scalar Network400.node90 	number_of_messages 	6
scalar Network400.node90 	discovery_latency 	2052
scalar Network400.node90 	number_of_desired_resources 	20
scalar Network400.node90 	query_homogenity_rate 	33.333333333333
scalar Network400.node90 	qrecord_time 	18123.604578176
scalar Network400.node90 	discovery_resolution_rate 	33.333333333333
scalar Network400.node330 	rate_of_requesters 	1
scalar Network400.node330 	number_of_resources 	22000
scalar Network400.node330 	time_period 	3
scalar Network400.node330 	number_of_messages 	11
scalar Network400.node330 	discovery_latency 	2040
scalar Network400.node330 	number_of_desired_resources 	20
scalar Network400.node330 	query_homogenity_rate 	33.333333333333
scalar Network400.node330 	qrecord_time 	18147.393292601
scalar Network400.node330 	discovery_resolution_rate 	33.333333333333
scalar Network400.node300 	rate_of_requesters 	1
scalar Network400.node300 	number_of_resources 	22000
scalar Network400.node300 	time_period 	4
scalar Network400.node300 	number_of_messages 	10
scalar Network400.node300 	discovery_latency 	1968
scalar Network400.node300 	number_of_desired_resources 	20
scalar Network400.node300 	query_homogenity_rate 	33.333333333333
scalar Network400.node300 	qrecord_time 	18303.08713024
scalar Network400.node300 	discovery_resolution_rate 	33.333333333333
scalar Network400.node180 	rate_of_requesters 	1
scalar Network400.node180 	number_of_resources 	22000
scalar Network400.node180 	time_period 	3
scalar Network400.node180 	number_of_messages 	20
scalar Network400.node180 	discovery_latency 	2112
scalar Network400.node180 	number_of_desired_resources 	20
scalar Network400.node180 	query_homogenity_rate 	33.333333333333
scalar Network400.node180 	qrecord_time 	18308.331266925
scalar Network400.node180 	discovery_resolution_rate 	33.333333333333
scalar Network400.node310 	rate_of_requesters 	1
scalar Network400.node310 	number_of_resources 	22000
scalar Network400.node310 	time_period 	8
scalar Network400.node310 	number_of_messages 	7
scalar Network400.node310 	discovery_latency 	1992
scalar Network400.node310 	number_of_desired_resources 	20
scalar Network400.node310 	query_homogenity_rate 	33.333333333333
scalar Network400.node310 	qrecord_time 	18461.770618011
scalar Network400.node310 	discovery_resolution_rate 	33.333333333333
scalar Network400.node360 	rate_of_requesters 	1
scalar Network400.node360 	number_of_resources 	22000
scalar Network400.node360 	time_period 	3
scalar Network400.node360 	number_of_messages 	8
scalar Network400.node360 	discovery_latency 	2028
scalar Network400.node360 	number_of_desired_resources 	20
scalar Network400.node360 	query_homogenity_rate 	33.333333333333
scalar Network400.node360 	qrecord_time 	18467.187637726
scalar Network400.node360 	discovery_resolution_rate 	33.333333333333
scalar Network400.node220 	rate_of_requesters 	1
scalar Network400.node220 	number_of_resources 	22000
scalar Network400.node220 	time_period 	3
scalar Network400.node220 	number_of_messages 	12
scalar Network400.node220 	discovery_latency 	2184
scalar Network400.node220 	number_of_desired_resources 	20
scalar Network400.node220 	query_homogenity_rate 	33.333333333333
scalar Network400.node220 	qrecord_time 	18568.398169312
scalar Network400.node220 	discovery_resolution_rate 	33.333333333333
scalar Network400.node10 	rate_of_requesters 	1
scalar Network400.node10 	number_of_resources 	22000
scalar Network400.node10 	time_period 	4
scalar Network400.node10 	number_of_messages 	38
scalar Network400.node10 	discovery_latency 	1860
scalar Network400.node10 	number_of_desired_resources 	20
scalar Network400.node10 	query_homogenity_rate 	33.333333333333
scalar Network400.node10 	qrecord_time 	18685.297020543
scalar Network400.node10 	discovery_resolution_rate 	66.666666666667
scalar Network400.node110 	rate_of_requesters 	1
scalar Network400.node110 	number_of_resources 	22000
scalar Network400.node110 	time_period 	8
scalar Network400.node110 	number_of_messages 	98
scalar Network400.node110 	discovery_latency 	2016
scalar Network400.node110 	number_of_desired_resources 	20
scalar Network400.node110 	query_homogenity_rate 	33.333333333333
scalar Network400.node110 	qrecord_time 	18686.128494973
scalar Network400.node110 	discovery_resolution_rate 	50
scalar Network400.node220 	rate_of_requesters 	1
scalar Network400.node220 	number_of_resources 	22000
scalar Network400.node220 	time_period 	4
scalar Network400.node220 	number_of_messages 	24
scalar Network400.node220 	discovery_latency 	1884
scalar Network400.node220 	number_of_desired_resources 	20
scalar Network400.node220 	query_homogenity_rate 	33.333333333333
scalar Network400.node220 	qrecord_time 	19164.606837066
scalar Network400.node220 	discovery_resolution_rate 	66.666666666667
scalar Network400.node50 	rate_of_requesters 	1
scalar Network400.node50 	number_of_resources 	22000
scalar Network400.node50 	time_period 	6
scalar Network400.node50 	number_of_messages 	26
scalar Network400.node50 	discovery_latency 	1788
scalar Network400.node50 	number_of_desired_resources 	20
scalar Network400.node50 	query_homogenity_rate 	33.333333333333
scalar Network400.node50 	qrecord_time 	19495.447192943
scalar Network400.node50 	discovery_resolution_rate 	66.666666666667
scalar Network400.node360 	rate_of_requesters 	1
scalar Network400.node360 	number_of_resources 	22000
scalar Network400.node360 	time_period 	4
scalar Network400.node360 	number_of_messages 	32
scalar Network400.node360 	discovery_latency 	1860
scalar Network400.node360 	number_of_desired_resources 	20
scalar Network400.node360 	query_homogenity_rate 	33.333333333333
[...]
scalar Network400.node270 	qrecord_time 	47817.022377339
scalar Network400.node270 	discovery_resolution_rate 	66.666666666667
scalar Network400.node390 	rate_of_requesters 	1
scalar Network400.node390 	number_of_resources 	22000
scalar Network400.node390 	time_period 	9
scalar Network400.node390 	number_of_messages 	16
scalar Network400.node390 	discovery_latency 	1764
scalar Network400.node390 	number_of_desired_resources 	20
scalar Network400.node390 	query_homogenity_rate 	33.333333333333
scalar Network400.node390 	qrecord_time 	47847.038923125
scalar Network400.node390 	discovery_resolution_rate 	66.666666666667
scalar Network400.node130 	rate_of_requesters 	1
scalar Network400.node130 	number_of_resources 	22000
scalar Network400.node130 	time_period 	9
scalar Network400.node130 	number_of_messages 	32
scalar Network400.node130 	discovery_latency 	1836
scalar Network400.node130 	number_of_desired_resources 	20
scalar Network400.node130 	query_homogenity_rate 	33.333333333333
scalar Network400.node130 	qrecord_time 	48175.885783197
scalar Network400.node130 	discovery_resolution_rate 	66.666666666667
scalar Network400.node350 	rate_of_requesters 	1
scalar Network400.node350 	number_of_resources 	22000
scalar Network400.node350 	time_period 	8
scalar Network400.node350 	number_of_messages 	16
scalar Network400.node350 	discovery_latency 	1788
scalar Network400.node350 	number_of_desired_resources 	20
scalar Network400.node350 	query_homogenity_rate 	33.333333333333
scalar Network400.node350 	qrecord_time 	49525.63746453
scalar Network400.node350 	discovery_resolution_rate 	66.666666666667
scalar Network400.node220 	rate_of_requesters 	1
scalar Network400.node220 	number_of_resources 	22000
scalar Network400.node220 	time_period 	7
scalar Network400.node220 	number_of_messages 	16
scalar Network400.node220 	discovery_latency 	1776
scalar Network400.node220 	number_of_desired_resources 	20
scalar Network400.node220 	query_homogenity_rate 	33.333333333333
scalar Network400.node220 	qrecord_time 	49582.282486382
scalar Network400.node220 	discovery_resolution_rate 	66.666666666667
scalar Network400.node170 	rate_of_requesters 	1
scalar Network400.node170 	number_of_resources 	22000
scalar Network400.node170 	time_period 	10
scalar Network400.node170 	number_of_messages 	17
scalar Network400.node170 	discovery_latency 	1788
scalar Network400.node170 	number_of_desired_resources 	20
scalar Network400.node170 	query_homogenity_rate 	33.333333333333
scalar Network400.node170 	qrecord_time 	49838.70246238
scalar Network400.node170 	discovery_resolution_rate 	66.666666666667
scalar Network400.node130 	rate_of_requesters 	1
scalar Network400.node130 	number_of_resources 	22000
scalar Network400.node130 	time_period 	10
scalar Network400.node130 	number_of_messages 	12
scalar Network400.node130 	discovery_latency 	1812
scalar Network400.node130 	number_of_desired_resources 	20
scalar Network400.node130 	query_homogenity_rate 	33.333333333333
scalar Network400.node130 	qrecord_time 	50317.797117803
scalar Network400.node130 	discovery_resolution_rate 	66.666666666667
scalar Network400.node220 	rate_of_requesters 	1
scalar Network400.node220 	number_of_resources 	22000
scalar Network400.node220 	time_period 	8
scalar Network400.node220 	number_of_messages 	27
scalar Network400.node220 	discovery_latency 	1812
scalar Network400.node220 	number_of_desired_resources 	20
scalar Network400.node220 	query_homogenity_rate 	33.333333333333
scalar Network400.node220 	qrecord_time 	50386.247734637
scalar Network400.node220 	discovery_resolution_rate 	66.666666666667
scalar Network400.node380 	rate_of_requesters 	1
scalar Network400.node380 	number_of_resources 	22000
scalar Network400.node380 	time_period 	6
scalar Network400.node380 	number_of_messages 	11
scalar Network400.node380 	discovery_latency 	1812
scalar Network400.node380 	number_of_desired_resources 	20
scalar Network400.node380 	query_homogenity_rate 	33.333333333333
scalar Network400.node380 	qrecord_time 	50527.666317327
scalar Network400.node380 	discovery_resolution_rate 	66.666666666667
scalar Network400.node240 	rate_of_requesters 	1
scalar Network400.node240 	number_of_resources 	22000
scalar Network400.node240 	time_period 	9
scalar Network400.node240 	number_of_messages 	22
scalar Network400.node240 	discovery_latency 	1776
scalar Network400.node240 	number_of_desired_resources 	20
scalar Network400.node240 	query_homogenity_rate 	33.333333333333
scalar Network400.node240 	qrecord_time 	50743.961629656
scalar Network400.node240 	discovery_resolution_rate 	66.666666666667
scalar Network400.node340 	rate_of_requesters 	1
scalar Network400.node340 	number_of_resources 	22000
scalar Network400.node340 	time_period 	10
scalar Network400.node340 	number_of_messages 	22
scalar Network400.node340 	discovery_latency 	1752
scalar Network400.node340 	number_of_desired_resources 	20
scalar Network400.node340 	query_homogenity_rate 	33.333333333333
scalar Network400.node340 	qrecord_time 	51041.764099695
scalar Network400.node340 	discovery_resolution_rate 	66.666666666667
scalar Network400.node350 	rate_of_requesters 	1
scalar Network400.node350 	number_of_resources 	22000
scalar Network400.node350 	time_period 	9
scalar Network400.node350 	number_of_messages 	104
scalar Network400.node350 	discovery_latency 	1980
scalar Network400.node350 	number_of_desired_resources 	20
scalar Network400.node350 	query_homogenity_rate 	33.333333333333
scalar Network400.node350 	qrecord_time 	51139.01479178
scalar Network400.node350 	discovery_resolution_rate 	50
scalar Network400.node100 	rate_of_requesters 	1
scalar Network400.node100 	number_of_resources 	22000
scalar Network400.node100 	time_period 	8
scalar Network400.node100 	number_of_messages 	17
scalar Network400.node100 	discovery_latency 	1776
scalar Network400.node100 	number_of_desired_resources 	20
scalar Network400.node100 	query_homogenity_rate 	33.333333333333
scalar Network400.node100 	qrecord_time 	51997.018210144
scalar Network400.node100 	discovery_resolution_rate 	66.666666666667
scalar Network400.node220 	rate_of_requesters 	1
scalar Network400.node220 	number_of_resources 	22000
scalar Network400.node220 	time_period 	9
scalar Network400.node220 	number_of_messages 	12
scalar Network400.node220 	discovery_latency 	1992
scalar Network400.node220 	number_of_desired_resources 	20
scalar Network400.node220 	query_homogenity_rate 	33.333333333333
scalar Network400.node220 	qrecord_time 	52053.0153874
scalar Network400.node220 	discovery_resolution_rate 	33.333333333333
scalar Network400.node180 	rate_of_requesters 	1
scalar Network400.node180 	number_of_resources 	22000
scalar Network400.node180 	time_period 	8
scalar Network400.node180 	number_of_messages 	8
scalar Network400.node180 	discovery_latency 	2064
scalar Network400.node180 	number_of_desired_resources 	20
scalar Network400.node180 	query_homogenity_rate 	33.333333333333
scalar Network400.node180 	qrecord_time 	52059.715285105
scalar Network400.node180 	discovery_resolution_rate 	33.333333333333
scalar Network400.node180 	rate_of_requesters 	1
scalar Network400.node180 	number_of_resources 	22000
scalar Network400.node180 	time_period 	9
scalar Network400.node180 	number_of_messages 	8
scalar Network400.node180 	discovery_latency 	2016
scalar Network400.node180 	number_of_desired_resources 	20
scalar Network400.node180 	query_homogenity_rate 	33.333333333333
scalar Network400.node180 	qrecord_time 	52117.058948305
scalar Network400.node180 	discovery_resolution_rate 	33.333333333333
scalar Network400.node290 	rate_of_requesters 	1
scalar Network400.node290 	number_of_resources 	22000
scalar Network400.node290 	time_period 	9
scalar Network400.node290 	number_of_messages 	98
scalar Network400.node290 	discovery_latency 	2076
scalar Network400.node290 	number_of_desired_resources 	20
scalar Network400.node290 	query_homogenity_rate 	33.333333333333
scalar Network400.node290 	qrecord_time 	52441.585891224
scalar Network400.node290 	discovery_resolution_rate 	50
scalar Network400.node290 	rate_of_requesters 	1
scalar Network400.node290 	number_of_resources 	22000
scalar Network400.node290 	time_period 	10
scalar Network400.node290 	number_of_messages 	17
scalar Network400.node290 	discovery_latency 	1848
scalar Network400.node290 	number_of_desired_resources 	20
scalar Network400.node290 	query_homogenity_rate 	33.333333333333
scalar Network400.node290 	qrecord_time 	52445.361862259
scalar Network400.node290 	discovery_resolution_rate 	66.666666666667
scalar Network400.node240 	rate_of_requesters 	1
scalar Network400.node240 	number_of_resources 	22000
scalar Network400.node240 	time_period 	10
scalar Network400.node240 	number_of_messages 	104
scalar Network400.node240 	discovery_latency 	2028
scalar Network400.node240 	number_of_desired_resources 	20
scalar Network400.node240 	query_homogenity_rate 	33.333333333333
scalar Network400.node240 	qrecord_time 	52616.025081207
scalar Network400.node240 	discovery_resolution_rate 	50
scalar Network400.node330 	rate_of_requesters 	1
scalar Network400.node330 	number_of_resources 	22000
scalar Network400.node330 	time_period 	9
scalar Network400.node330 	number_of_messages 	12
scalar Network400.node330 	discovery_latency 	1824
scalar Network400.node330 	number_of_desired_resources 	20
scalar Network400.node330 	query_homogenity_rate 	33.333333333333
scalar Network400.node330 	qrecord_time 	52910.659757757
scalar Network400.node330 	discovery_resolution_rate 	66.666666666667
scalar Network400.node330 	rate_of_requesters 	1
scalar Network400.node330 	number_of_resources 	22000
scalar Network400.node330 	time_period 	8
scalar Network400.node330 	number_of_messages 	6
scalar Network400.node330 	discovery_latency 	2112
scalar Network400.node330 	number_of_desired_resources 	20
scalar Network400.node330 	query_homogenity_rate 	33.333333333333
scalar Network400.node330 	qrecord_time 	52956.7112243
scalar Network400.node330 	discovery_resolution_rate 	33.333333333333
scalar Network400.node350 	rate_of_requesters 	1
scalar Network400.node350 	number_of_resources 	22000
scalar Network400.node350 	time_period 	10
scalar Network400.node350 	number_of_messages 	17
scalar Network400.node350 	discovery_latency 	1776
scalar Network400.node350 	number_of_desired_resources 	20
scalar Network400.node350 	query_homogenity_rate 	33.333333333333
scalar Network400.node350 	qrecord_time 	52961.299670128
scalar Network400.node350 	discovery_resolution_rate 	66.666666666667
scalar Network400.node380 	rate_of_requesters 	1
scalar Network400.node380 	number_of_resources 	22000
scalar Network400.node380 	time_period 	7
scalar Network400.node380 	number_of_messages 	22
scalar Network400.node380 	discovery_latency 	1788
scalar Network400.node380 	number_of_desired_resources 	20
scalar Network400.node380 	query_homogenity_rate 	33.333333333333
scalar Network400.node380 	qrecord_time 	53535.154891699
scalar Network400.node380 	discovery_resolution_rate 	66.666666666667
scalar Network400.node100 	rate_of_requesters 	1
scalar Network400.node100 	number_of_resources 	22000
scalar Network400.node100 	time_period 	9
scalar Network400.node100 	number_of_messages 	12
scalar Network400.node100 	discovery_latency 	1776
scalar Network400.node100 	number_of_desired_resources 	20
scalar Network400.node100 	query_homogenity_rate 	33.333333333333
scalar Network400.node100 	qrecord_time 	54629.902921517
scalar Network400.node100 	discovery_resolution_rate 	66.666666666667
scalar Network400.node270 	rate_of_requesters 	1
scalar Network400.node270 	number_of_resources 	22000
scalar Network400.node270 	time_period 	5
scalar Network400.node270 	number_of_messages 	16
scalar Network400.node270 	discovery_latency 	1740
scalar Network400.node270 	number_of_desired_resources 	20
scalar Network400.node270 	query_homogenity_rate 	33.333333333333
scalar Network400.node270 	qrecord_time 	54678.699148515
scalar Network400.node270 	discovery_resolution_rate 	66.666666666667
scalar Network400.node250 	rate_of_requesters 	1
scalar Network400.node250 	number_of_resources 	22000
scalar Network400.node250 	time_period 	10
scalar Network400.node250 	number_of_messages 	10
scalar Network400.node250 	discovery_latency 	1812
scalar Network400.node250 	number_of_desired_resources 	20
scalar Network400.node250 	query_homogenity_rate 	33.333333333333
scalar Network400.node250 	qrecord_time 	54769.705760123
scalar Network400.node250 	discovery_resolution_rate 	66.666666666667
scalar Network400.node10 	rate_of_requesters 	1
scalar Network400.node10 	number_of_resources 	22000
scalar Network400.node10 	time_period 	10
scalar Network400.node10 	number_of_messages 	102
scalar Network400.node10 	discovery_latency 	2076
scalar Network400.node10 	number_of_desired_resources 	20
scalar Network400.node10 	query_homogenity_rate 	33.333333333333
scalar Network400.node10 	qrecord_time 	55085.366941579
scalar Network400.node10 	discovery_resolution_rate 	50
scalar Network400.node380 	rate_of_requesters 	1
scalar Network400.node380 	number_of_resources 	22000
scalar Network400.node380 	time_period 	8
scalar Network400.node380 	number_of_messages 	10
scalar Network400.node380 	discovery_latency 	1812
scalar Network400.node380 	number_of_desired_resources 	20
scalar Network400.node380 	query_homogenity_rate 	33.333333333333
scalar Network400.node380 	qrecord_time 	55344.087128992
scalar Network400.node380 	discovery_resolution_rate 	66.666666666667
scalar Network400.node270 	rate_of_requesters 	1
scalar Network400.node270 	number_of_resources 	22000
scalar Network400.node270 	time_period 	6
scalar Network400.node270 	number_of_messages 	97
scalar Network400.node270 	discovery_latency 	1992
scalar Network400.node270 	number_of_desired_resources 	20
scalar Network400.node270 	query_homogenity_rate 	33.333333333333
scalar Network400.node270 	qrecord_time 	55532.788380834
scalar Network400.node270 	discovery_resolution_rate 	50
scalar Network400.node100 	rate_of_requesters 	1
scalar Network400.node100 	number_of_resources 	22000
scalar Network400.node100 	time_period 	10
scalar Network400.node100 	number_of_messages 	13
scalar Network400.node100 	discovery_latency 	1800
scalar Network400.node100 	number_of_desired_resources 	20
scalar Network400.node100 	query_homogenity_rate 	33.333333333333
scalar Network400.node100 	qrecord_time 	56086.029767155
scalar Network400.node100 	discovery_resolution_rate 	66.666666666667
scalar Network400.node380 	rate_of_requesters 	1
scalar Network400.node380 	number_of_resources 	22000
scalar Network400.node380 	time_period 	9
scalar Network400.node380 	number_of_messages 	11
scalar Network400.node380 	discovery_latency 	1824
scalar Network400.node380 	number_of_desired_resources 	20
scalar Network400.node380 	query_homogenity_rate 	33.333333333333
scalar Network400.node380 	qrecord_time 	56160.532124508
scalar Network400.node380 	discovery_resolution_rate 	66.666666666667
scalar Network400.node210 	rate_of_requesters 	1
scalar Network400.node210 	number_of_resources 	22000
scalar Network400.node210 	time_period 	10
scalar Network400.node210 	number_of_messages 	11
scalar Network400.node210 	discovery_latency 	1680
scalar Network400.node210 	number_of_desired_resources 	20
scalar Network400.node210 	query_homogenity_rate 	33.333333333333
scalar Network400.node210 	qrecord_time 	56873.996363054
scalar Network400.node210 	discovery_resolution_rate 	66.666666666667
scalar Network400.node390 	rate_of_requesters 	1
scalar Network400.node390 	number_of_resources 	22000
scalar Network400.node390 	time_period 	10
scalar Network400.node390 	number_of_messages 	22
scalar Network400.node390 	discovery_latency 	1740
scalar Network400.node390 	number_of_desired_resources 	20
scalar Network400.node390 	query_homogenity_rate 	33.333333333333
scalar Network400.node390 	qrecord_time 	56955.278289081
scalar Network400.node390 	discovery_resolution_rate 	66.666666666667
scalar Network400.node180 	rate_of_requesters 	1
scalar Network400.node180 	number_of_resources 	22000
scalar Network400.node180 	time_period 	10
scalar Network400.node180 	number_of_messages 	17
scalar Network400.node180 	discovery_latency 	1788
scalar Network400.node180 	number_of_desired_resources 	20
scalar Network400.node180 	query_homogenity_rate 	33.333333333333
scalar Network400.node180 	qrecord_time 	57043.78286965
scalar Network400.node180 	discovery_resolution_rate 	66.666666666667
scalar Network400.node270 	rate_of_requesters 	1
scalar Network400.node270 	number_of_resources 	22000
scalar Network400.node270 	time_period 	7
scalar Network400.node270 	number_of_messages 	10
scalar Network400.node270 	discovery_latency 	1716
scalar Network400.node270 	number_of_desired_resources 	20
scalar Network400.node270 	query_homogenity_rate 	33.333333333333
scalar Network400.node270 	qrecord_time 	59138.942885383
scalar Network400.node270 	discovery_resolution_rate 	66.666666666667
scalar Network400.node330 	rate_of_requesters 	1
scalar Network400.node330 	number_of_resources 	22000
scalar Network400.node330 	time_period 	10
scalar Network400.node330 	number_of_messages 	11
scalar Network400.node330 	discovery_latency 	1836
scalar Network400.node330 	number_of_desired_resources 	20
scalar Network400.node330 	query_homogenity_rate 	33.333333333333
scalar Network400.node330 	qrecord_time 	59295.328550521
scalar Network400.node330 	discovery_resolution_rate 	66.666666666667
scalar Network400.node220 	rate_of_requesters 	1
scalar Network400.node220 	number_of_resources 	22000
scalar Network400.node220 	time_period 	10
scalar Network400.node220 	number_of_messages 	16
scalar Network400.node220 	discovery_latency 	1872
scalar Network400.node220 	number_of_desired_resources 	20
scalar Network400.node220 	query_homogenity_rate 	33.333333333333
scalar Network400.node220 	qrecord_time 	59523.423429373
scalar Network400.node220 	discovery_resolution_rate 	66.666666666667
scalar Network400.node270 	rate_of_requesters 	1
scalar Network400.node270 	number_of_resources 	22000
scalar Network400.node270 	time_period 	8
scalar Network400.node270 	number_of_messages 	10
scalar Network400.node270 	discovery_latency 	1716
scalar Network400.node270 	number_of_desired_resources 	20
scalar Network400.node270 	query_homogenity_rate 	33.333333333333
scalar Network400.node270 	qrecord_time 	59663.30949841
scalar Network400.node270 	discovery_resolution_rate 	66.666666666667
scalar Network400.node380 	rate_of_requesters 	1
scalar Network400.node380 	number_of_resources 	22000
scalar Network400.node380 	time_period 	10
scalar Network400.node380 	number_of_messages 	10
scalar Network400.node380 	discovery_latency 	1848
scalar Network400.node380 	number_of_desired_resources 	20
scalar Network400.node380 	query_homogenity_rate 	33.333333333333
scalar Network400.node380 	qrecord_time 	59706.474764291
scalar Network400.node380 	discovery_resolution_rate 	66.666666666667
scalar Network400.node270 	rate_of_requesters 	1
scalar Network400.node270 	number_of_resources 	22000
scalar Network400.node270 	time_period 	9
scalar Network400.node270 	number_of_messages 	10
scalar Network400.node270 	discovery_latency 	1692
scalar Network400.node270 	number_of_desired_resources 	20
scalar Network400.node270 	query_homogenity_rate 	33.333333333333
scalar Network400.node270 	qrecord_time 	66630.995552811
scalar Network400.node270 	discovery_resolution_rate 	66.666666666667
scalar Network400.node270 	rate_of_requesters 	1
scalar Network400.node270 	number_of_resources 	22000
scalar Network400.node270 	time_period 	10
scalar Network400.node270 	number_of_messages 	10
scalar Network400.node270 	discovery_latency 	1692
scalar Network400.node270 	number_of_desired_resources 	20
scalar Network400.node270 	query_homogenity_rate 	33.333333333333
scalar Network400.node270 	qrecord_time 	70048.243292793
scalar Network400.node270 	discovery_resolution_rate 	66.666666666667
