version 2
run net500-1-20150623-18:56:17-12147
attr as 1
attr configname net500
attr datetime 20150623-18:56:17
attr dnor 20
attr experiment net500
attr inifile omnetpp.ini
attr iterationvars "$rhdrq=3, $dnor=20, $as=1"
attr iterationvars2 "$rhdrq=3, $dnor=20, $as=1, $repetition=1"
attr measurement "$rhdrq=3, $dnor=20, $as=1"
attr network Network500
attr processid 12147
attr repetition 1
attr replication #1
attr resultdir results
attr rhdrq 3
attr runnumber 1
attr seedset 1

scalar . 	as 	1
scalar . 	dnor 	20
scalar . 	rhdrq 	3
scalar Network500.node230 	rate_of_requesters 	1
scalar Network500.node230 	number_of_resources 	27500
scalar Network500.node230 	time_period 	1
scalar Network500.node230 	number_of_messages 	28
scalar Network500.node230 	discovery_latency 	2736
scalar Network500.node230 	number_of_desired_resources 	20
scalar Network500.node230 	query_homogenity_rate 	33.333333333333
scalar Network500.node230 	qrecord_time 	7450
scalar Network500.node230 	discovery_resolution_rate 	66.666666666667
scalar Network500.node340 	rate_of_requesters 	1
scalar Network500.node340 	number_of_resources 	27500
scalar Network500.node340 	time_period 	1
scalar Network500.node340 	number_of_messages 	27
scalar Network500.node340 	discovery_latency 	2736
scalar Network500.node340 	number_of_desired_resources 	20
scalar Network500.node340 	query_homogenity_rate 	33.333333333333
scalar Network500.node340 	qrecord_time 	7474
scalar Network500.node340 	discovery_resolution_rate 	66.666666666667
scalar Network500.node0 	rate_of_requesters 	1
scalar Network500.node0 	number_of_resources 	27500
scalar Network500.node0 	time_period 	1
scalar Network500.node0 	number_of_messages 	13
scalar Network500.node0 	discovery_latency 	2808
scalar Network500.node0 	number_of_desired_resources 	20
scalar Network500.node0 	query_homogenity_rate 	33.333333333333
scalar Network500.node0 	qrecord_time 	7540
scalar Network500.node0 	discovery_resolution_rate 	66.666666666667
scalar Network500.node60 	rate_of_requesters 	1
scalar Network500.node60 	number_of_resources 	27500
scalar Network500.node60 	time_period 	1
scalar Network500.node60 	number_of_messages 	5
scalar Network500.node60 	discovery_latency 	2892
scalar Network500.node60 	number_of_desired_resources 	20
scalar Network500.node60 	query_homogenity_rate 	33.333333333333
scalar Network500.node60 	qrecord_time 	7582
scalar Network500.node60 	discovery_resolution_rate 	33.333333333333
scalar Network500.node180 	rate_of_requesters 	1
scalar Network500.node180 	number_of_resources 	27500
scalar Network500.node180 	time_period 	1
scalar Network500.node180 	number_of_messages 	17
scalar Network500.node180 	discovery_latency 	2892
scalar Network500.node180 	number_of_desired_resources 	20
scalar Network500.node180 	query_homogenity_rate 	33.333333333333
scalar Network500.node180 	qrecord_time 	7582
scalar Network500.node180 	discovery_resolution_rate 	66.666666666667
scalar Network500.node260 	rate_of_requesters 	1
scalar Network500.node260 	number_of_resources 	27500
scalar Network500.node260 	time_period 	1
scalar Network500.node260 	number_of_messages 	35
scalar Network500.node260 	discovery_latency 	2892
scalar Network500.node260 	number_of_desired_resources 	20
scalar Network500.node260 	query_homogenity_rate 	33.333333333333
scalar Network500.node260 	qrecord_time 	7582
scalar Network500.node260 	discovery_resolution_rate 	66.666666666667
scalar Network500.node150 	rate_of_requesters 	1
scalar Network500.node150 	number_of_resources 	27500
scalar Network500.node150 	time_period 	1
scalar Network500.node150 	number_of_messages 	11
scalar Network500.node150 	discovery_latency 	2928
scalar Network500.node150 	number_of_desired_resources 	20
scalar Network500.node150 	query_homogenity_rate 	33.333333333333
scalar Network500.node150 	qrecord_time 	7618
scalar Network500.node150 	discovery_resolution_rate 	33.333333333333
scalar Network500.node280 	rate_of_requesters 	1
scalar Network500.node280 	number_of_resources 	27500
scalar Network500.node280 	time_period 	1
scalar Network500.node280 	number_of_messages 	4
scalar Network500.node280 	discovery_latency 	2892
scalar Network500.node280 	number_of_desired_resources 	20
scalar Network500.node280 	query_homogenity_rate 	33.333333333333
scalar Network500.node280 	qrecord_time 	7624
scalar Network500.node280 	discovery_resolution_rate 	33.333333333333
scalar Network500.node90 	rate_of_requesters 	1
scalar Network500.node90 	number_of_resources 	27500
scalar Network500.node90 	time_period 	1
scalar Network500.node90 	number_of_messages 	14
scalar Network500.node90 	discovery_latency 	2916
scalar Network500.node90 	number_of_desired_resources 	20
scalar Network500.node90 	query_homogenity_rate 	33.333333333333
scalar Network500.node90 	qrecord_time 	7630
scalar Network500.node90 	discovery_resolution_rate 	33.333333333333
scalar Network500.node100 	rate_of_requesters 	1
scalar Network500.node100 	number_of_resources 	27500
scalar Network500.node100 	time_period 	1
scalar Network500.node100 	number_of_messages 	5
scalar Network500.node100 	discovery_latency 	2928
scalar Network500.node100 	number_of_desired_resources 	20
scalar Network500.node100 	query_homogenity_rate 	33.333333333333
scalar Network500.node100 	qrecord_time 	7636
scalar Network500.node100 	discovery_resolution_rate 	33.333333333333
scalar Network500.node40 	rate_of_requesters 	1
scalar Network500.node40 	number_of_resources 	27500
scalar Network500.node40 	time_period 	1
scalar Network500.node40 	number_of_messages 	4
scalar Network500.node40 	discovery_latency 	2892
scalar Network500.node40 	number_of_desired_resources 	20
scalar Network500.node40 	query_homogenity_rate 	33.333333333333
scalar Network500.node40 	qrecord_time 	7642
scalar Network500.node40 	discovery_resolution_rate 	33.333333333333
scalar Network500.node80 	rate_of_requesters 	1
scalar Network500.node80 	number_of_resources 	27500
scalar Network500.node80 	time_period 	1
scalar Network500.node80 	number_of_messages 	22
scalar Network500.node80 	discovery_latency 	2916
scalar Network500.node80 	number_of_desired_resources 	20
scalar Network500.node80 	query_homogenity_rate 	33.333333333333
scalar Network500.node80 	qrecord_time 	7648
scalar Network500.node80 	discovery_resolution_rate 	66.666666666667
scalar Network500.node350 	rate_of_requesters 	1
scalar Network500.node350 	number_of_resources 	27500
scalar Network500.node350 	time_period 	1
scalar Network500.node350 	number_of_messages 	6
scalar Network500.node350 	discovery_latency 	2952
scalar Network500.node350 	number_of_desired_resources 	20
scalar Network500.node350 	query_homogenity_rate 	33.333333333333
scalar Network500.node350 	qrecord_time 	7660
scalar Network500.node350 	discovery_resolution_rate 	33.333333333333
scalar Network500.node70 	rate_of_requesters 	1
scalar Network500.node70 	number_of_resources 	27500
scalar Network500.node70 	time_period 	1
scalar Network500.node70 	number_of_messages 	4
scalar Network500.node70 	discovery_latency 	2976
scalar Network500.node70 	number_of_desired_resources 	20
scalar Network500.node70 	query_homogenity_rate 	33.333333333333
scalar Network500.node70 	qrecord_time 	7684
scalar Network500.node70 	discovery_resolution_rate 	33.333333333333
scalar Network500.node110 	rate_of_requesters 	1
scalar Network500.node110 	number_of_resources 	27500
scalar Network500.node110 	time_period 	1
scalar Network500.node110 	number_of_messages 	19
scalar Network500.node110 	discovery_latency 	2952
scalar Network500.node110 	number_of_desired_resources 	20
scalar Network500.node110 	query_homogenity_rate 	33.333333333333
scalar Network500.node110 	qrecord_time 	7684
scalar Network500.node110 	discovery_resolution_rate 	33.333333333333
scalar Network500.node490 	rate_of_requesters 	1
scalar Network500.node490 	number_of_resources 	27500
scalar Network500.node490 	time_period 	1
scalar Network500.node490 	number_of_messages 	30
scalar Network500.node490 	discovery_latency 	3012
scalar Network500.node490 	number_of_desired_resources 	20
scalar Network500.node490 	query_homogenity_rate 	33.333333333333
scalar Network500.node490 	qrecord_time 	7702
scalar Network500.node490 	discovery_resolution_rate 	33.333333333333
scalar Network500.node160 	rate_of_requesters 	1
scalar Network500.node160 	number_of_resources 	27500
scalar Network500.node160 	time_period 	1
scalar Network500.node160 	number_of_messages 	79
scalar Network500.node160 	discovery_latency 	2940
scalar Network500.node160 	number_of_desired_resources 	20
scalar Network500.node160 	query_homogenity_rate 	33.333333333333
scalar Network500.node160 	qrecord_time 	7708
scalar Network500.node160 	discovery_resolution_rate 	33.333333333333
scalar Network500.node270 	rate_of_requesters 	1
scalar Network500.node270 	number_of_resources 	27500
scalar Network500.node270 	time_period 	1
scalar Network500.node270 	number_of_messages 	74
scalar Network500.node270 	discovery_latency 	2988
scalar Network500.node270 	number_of_desired_resources 	20
scalar Network500.node270 	query_homogenity_rate 	33.333333333333
scalar Network500.node270 	qrecord_time 	7708
scalar Network500.node270 	discovery_resolution_rate 	33.333333333333
scalar Network500.node200 	rate_of_requesters 	1
scalar Network500.node200 	number_of_resources 	27500
scalar Network500.node200 	time_period 	1
scalar Network500.node200 	number_of_messages 	78
scalar Network500.node200 	discovery_latency 	3000
scalar Network500.node200 	number_of_desired_resources 	20
scalar Network500.node200 	query_homogenity_rate 	33.333333333333
scalar Network500.node200 	qrecord_time 	7714
scalar Network500.node200 	discovery_resolution_rate 	33.333333333333
scalar Network500.node130 	rate_of_requesters 	1
scalar Network500.node130 	number_of_resources 	27500
scalar Network500.node130 	time_period 	1
scalar Network500.node130 	number_of_messages 	6
scalar Network500.node130 	discovery_latency 	2988
scalar Network500.node130 	number_of_desired_resources 	20
scalar Network500.node130 	query_homogenity_rate 	33.333333333333
scalar Network500.node130 	qrecord_time 	7714
scalar Network500.node130 	discovery_resolution_rate 	33.333333333333
scalar Network500.node240 	rate_of_requesters 	1
scalar Network500.node240 	number_of_resources 	27500
scalar Network500.node240 	time_period 	1
scalar Network500.node240 	number_of_messages 	18
scalar Network500.node240 	discovery_latency 	3024
scalar Network500.node240 	number_of_desired_resources 	20
scalar Network500.node240 	query_homogenity_rate 	33.333333333333
scalar Network500.node240 	qrecord_time 	7714
scalar Network500.node240 	discovery_resolution_rate 	33.333333333333
scalar Network500.node120 	rate_of_requesters 	1
scalar Network500.node120 	number_of_resources 	27500
scalar Network500.node120 	time_period 	1
scalar Network500.node120 	number_of_messages 	15
scalar Network500.node120 	discovery_latency 	3036
scalar Network500.node120 	number_of_desired_resources 	20
scalar Network500.node120 	query_homogenity_rate 	33.333333333333
scalar Network500.node120 	qrecord_time 	7726
scalar Network500.node120 	discovery_resolution_rate 	33.333333333333
scalar Network500.node250 	rate_of_requesters 	1
scalar Network500.node250 	number_of_resources 	27500
scalar Network500.node250 	time_period 	1
scalar Network500.node250 	number_of_messages 	5
scalar Network500.node250 	discovery_latency 	2988
scalar Network500.node250 	number_of_desired_resources 	20
scalar Network500.node250 	query_homogenity_rate 	33.333333333333
scalar Network500.node250 	qrecord_time 	7726
scalar Network500.node250 	discovery_resolution_rate 	33.333333333333
scalar Network500.node410 	rate_of_requesters 	1
scalar Network500.node410 	number_of_resources 	27500
scalar Network500.node410 	time_period 	1
scalar Network500.node410 	number_of_messages 	5
scalar Network500.node410 	discovery_latency 	2988
scalar Network500.node410 	number_of_desired_resources 	20
scalar Network500.node410 	query_homogenity_rate 	33.333333333333
scalar Network500.node410 	qrecord_time 	7726
scalar Network500.node410 	discovery_resolution_rate 	33.333333333333
scalar Network500.node170 	rate_of_requesters 	1
scalar Network500.node170 	number_of_resources 	27500
scalar Network500.node170 	time_period 	1
scalar Network500.node170 	number_of_messages 	83
scalar Network500.node170 	discovery_latency 	3024
scalar Network500.node170 	number_of_desired_resources 	20
scalar Network500.node170 	query_homogenity_rate 	33.333333333333
scalar Network500.node170 	qrecord_time 	7732
scalar Network500.node170 	discovery_resolution_rate 	33.333333333333
scalar Network500.node390 	rate_of_requesters 	1
scalar Network500.node390 	number_of_resources 	27500
scalar Network500.node390 	time_period 	1
scalar Network500.node390 	number_of_messages 	16
scalar Network500.node390 	discovery_latency 	3024
scalar Network500.node390 	number_of_desired_resources 	20
scalar Network500.node390 	query_homogenity_rate 	33.333333333333
scalar Network500.node390 	qrecord_time 	7738
scalar Network500.node390 	discovery_resolution_rate 	33.333333333333
scalar Network500.node380 	rate_of_requesters 	1
scalar Network500.node380 	number_of_resources 	27500
scalar Network500.node380 	time_period 	1
scalar Network500.node380 	number_of_messages 	7
scalar Network500.node380 	discovery_latency 	3048
scalar Network500.node380 	number_of_desired_resources 	20
scalar Network500.node380 	query_homogenity_rate 	33.333333333333
scalar Network500.node380 	qrecord_time 	7738
scalar Network500.node380 	discovery_resolution_rate 	33.333333333333
scalar Network500.node290 	rate_of_requesters 	1
scalar Network500.node290 	number_of_resources 	27500
scalar Network500.node290 	time_period 	1
scalar Network500.node290 	number_of_messages 	4
scalar Network500.node290 	discovery_latency 	2976
scalar Network500.node290 	number_of_desired_resources 	20
scalar Network500.node290 	query_homogenity_rate 	33.333333333333
scalar Network500.node290 	qrecord_time 	7744
scalar Network500.node290 	discovery_resolution_rate 	33.333333333333
scalar Network500.node310 	rate_of_requesters 	1
scalar Network500.node310 	number_of_resources 	27500
scalar Network500.node310 	time_period 	1
scalar Network500.node310 	number_of_messages 	94
scalar Network500.node310 	discovery_latency 	3072
scalar Network500.node310 	number_of_desired_resources 	20
scalar Network500.node310 	query_homogenity_rate 	33.333333333333
scalar Network500.node310 	qrecord_time 	7768
scalar Network500.node310 	discovery_resolution_rate 	33.333333333333
scalar Network500.node220 	rate_of_requesters 	1
scalar Network500.node220 	number_of_resources 	27500
scalar Network500.node220 	time_period 	1
scalar Network500.node220 	number_of_messages 	14
scalar Network500.node220 	discovery_latency 	3084
scalar Network500.node220 	number_of_desired_resources 	20
scalar Network500.node220 	query_homogenity_rate 	33.333333333333
scalar Network500.node220 	qrecord_time 	7774
scalar Network500.node220 	discovery_resolution_rate 	33.333333333333
scalar Network500.node360 	rate_of_requesters 	1
scalar Network500.node360 	number_of_resources 	27500
scalar Network500.node360 	time_period 	1
scalar Network500.node360 	number_of_messages 	10
scalar Network500.node360 	discovery_latency 	3048
scalar Network500.node360 	number_of_desired_resources 	20
scalar Network500.node360 	query_homogenity_rate 	33.333333333333
scalar Network500.node360 	qrecord_time 	7780
scalar Network500.node360 	discovery_resolution_rate 	33.333333333333
scalar Network500.node460 	rate_of_requesters 	1
scalar Network500.node460 	number_of_resources 	27500
scalar Network500.node460 	time_period 	1
scalar Network500.node460 	number_of_messages 	28
scalar Network500.node460 	discovery_latency 	3036
scalar Network500.node460 	number_of_desired_resources 	20
scalar Network500.node460 	query_homogenity_rate 	33.333333333333
scalar Network500.node460 	qrecord_time 	7786
scalar Network500.node460 	discovery_resolution_rate 	33.333333333333
scalar Network500.node450 	rate_of_requesters 	1
scalar Network500.node450 	number_of_resources 	27500
scalar Network500.node450 	time_period 	1
scalar Network500.node450 	number_of_messages 	10
scalar Network500.node450 	discovery_latency 	2928
scalar Network500.node450 	number_of_desired_resources 	20
scalar Network500.node450 	query_homogenity_rate 	33.333333333333
scalar Network500.node450 	qrecord_time 	7786
scalar Network500.node450 	discovery_resolution_rate 	33.333333333333
scalar Network500.node480 	rate_of_requesters 	1
scalar Network500.node480 	number_of_resources 	27500
scalar Network500.node480 	time_period 	1
scalar Network500.node480 	number_of_messages 	13
scalar Network500.node480 	discovery_latency 	3024
scalar Network500.node480 	number_of_desired_resources 	20
scalar Network500.node480 	query_homogenity_rate 	33.333333333333
scalar Network500.node480 	qrecord_time 	7792
scalar Network500.node480 	discovery_resolution_rate 	33.333333333333
scalar Network500.node50 	rate_of_requesters 	1
scalar Network500.node50 	number_of_resources 	27500
scalar Network500.node50 	time_period 	1
scalar Network500.node50 	number_of_messages 	6
scalar Network500.node50 	discovery_latency 	3024
scalar Network500.node50 	number_of_desired_resources 	20
scalar Network500.node50 	query_homogenity_rate 	33.333333333333
scalar Network500.node50 	qrecord_time 	7798
scalar Network500.node50 	discovery_resolution_rate 	33.333333333333
scalar Network500.node20 	rate_of_requesters 	1
scalar Network500.node20 	number_of_resources 	27500
scalar Network500.node20 	time_period 	1
scalar Network500.node20 	number_of_messages 	30
scalar Network500.node20 	discovery_latency 	3096
scalar Network500.node20 	number_of_desired_resources 	20
scalar Network500.node20 	query_homogenity_rate 	33.333333333333
scalar Network500.node20 	qrecord_time 	7810
scalar Network500.node20 	discovery_resolution_rate 	33.333333333333
scalar Network500.node140 	rate_of_requesters 	1
scalar Network500.node140 	number_of_resources 	27500
scalar Network500.node140 	time_period 	1
scalar Network500.node140 	number_of_messages 	15
scalar Network500.node140 	discovery_latency 	3072
scalar Network500.node140 	number_of_desired_resources 	20
scalar Network500.node140 	query_homogenity_rate 	33.333333333333
scalar Network500.node140 	qrecord_time 	7822
scalar Network500.node140 	discovery_resolution_rate 	33.333333333333
scalar Network500.node330 	rate_of_requesters 	1
scalar Network500.node330 	number_of_resources 	27500
scalar Network500.node330 	time_period 	1
scalar Network500.node330 	number_of_messages 	10
scalar Network500.node330 	discovery_latency 	2988
scalar Network500.node330 	number_of_desired_resources 	20
scalar Network500.node330 	query_homogenity_rate 	33.333333333333
scalar Network500.node330 	qrecord_time 	7828
scalar Network500.node330 	discovery_resolution_rate 	33.333333333333
scalar Network500.node470 	rate_of_requesters 	1
scalar Network500.node470 	number_of_resources 	27500
scalar Network500.node470 	time_period 	1
scalar Network500.node470 	number_of_messages 	10
scalar Network500.node470 	discovery_latency 	3072
scalar Network500.node470 	number_of_desired_resources 	20
scalar Network500.node470 	query_homogenity_rate 	33.333333333333
scalar Network500.node470 	qrecord_time 	7834
scalar Network500.node470 	discovery_resolution_rate 	33.333333333333
scalar Network500.node420 	rate_of_requesters 	1
scalar Network500.node420 	number_of_resources 	27500
scalar Network500.node420 	time_period 	1
scalar Network500.node420 	number_of_messages 	13
scalar Network500.node420 	discovery_latency 	3060
scalar Network500.node420 	number_of_desired_resources 	20
scalar Network500.node420 	query_homogenity_rate 	33.333333333333
scalar Network500.node420 	qrecord_time 	7834
scalar Network500.node420 	discovery_resolution_rate 	33.333333333333
scalar Network500.node440 	rate_of_requesters 	1
scalar Network500.node440 	number_of_resources 	27500
scalar Network500.node440 	time_period 	1
scalar Network500.node440 	number_of_messages 	33
scalar Network500.node440 	discovery_latency 	3024
scalar Network500.node440 	number_of_desired_resources 	20
scalar Network500.node440 	query_homogenity_rate 	33.333333333333
scalar Network500.node440 	qrecord_time 	7840
scalar Network500.node440 	discovery_resolution_rate 	33.333333333333
scalar Network500.node190 	rate_of_requesters 	1
scalar Network500.node190 	number_of_resources 	27500
scalar Network500.node190 	time_period 	1
scalar Network500.node190 	number_of_messages 	79
scalar Network500.node190 	discovery_latency 	3132
scalar Network500.node190 	number_of_desired_resources 	20
scalar Network500.node190 	query_homogenity_rate 	33.333333333333
scalar Network500.node190 	qrecord_time 	7840
scalar Network500.node190 	discovery_resolution_rate 	33.333333333333
scalar Network500.node390 	rate_of_requesters 	1
scalar Network500.node390 	number_of_resources 	27500
scalar Network500.node390 	time_period 	2
scalar Network500.node390 	number_of_messages 	85
scalar Network500.node390 	discovery_latency 	2988
scalar Network500.node390 	number_of_desired_resources 	20
scalar Network500.node390 	query_homogenity_rate 	33.333333333333
scalar Network500.node390 	qrecord_time 	7848.056248852
scalar Network500.node390 	discovery_resolution_rate 	33.333333333333
scalar Network500.node10 	rate_of_requesters 	1
scalar Network500.node10 	number_of_resources 	27500
scalar Network500.node10 	time_period 	1
scalar Network500.node10 	number_of_messages 	143
scalar Network500.node10 	discovery_latency 	3084
scalar Network500.node10 	number_of_desired_resources 	20
scalar Network500.node10 	query_homogenity_rate 	33.333333333333
scalar Network500.node10 	qrecord_time 	7858
scalar Network500.node10 	discovery_resolution_rate 	50
scalar Network500.node470 	rate_of_requesters 	1
scalar Network500.node470 	number_of_resources 	27500
scalar Network500.node470 	time_period 	2
scalar Network500.node470 	number_of_messages 	17
scalar Network500.node470 	discovery_latency 	3024
scalar Network500.node470 	number_of_desired_resources 	20
scalar Network500.node470 	query_homogenity_rate 	33.333333333333
scalar Network500.node470 	qrecord_time 	7860.558337152
scalar Network500.node470 	discovery_resolution_rate 	33.333333333333
scalar Network500.node370 	rate_of_requesters 	1
scalar Network500.node370 	number_of_resources 	27500
scalar Network500.node370 	time_period 	1
scalar Network500.node370 	number_of_messages 	74
scalar Network500.node370 	discovery_latency 	3108
scalar Network500.node370 	number_of_desired_resources 	20
scalar Network500.node370 	query_homogenity_rate 	33.333333333333
scalar Network500.node370 	qrecord_time 	7876
scalar Network500.node370 	discovery_resolution_rate 	33.333333333333
scalar Network500.node30 	rate_of_requesters 	1
scalar Network500.node30 	number_of_resources 	27500
scalar Network500.node30 	time_period 	1
scalar Network500.node30 	number_of_messages 	6
scalar Network500.node30 	discovery_latency 	3156
scalar Network500.node30 	number_of_desired_resources 	20
scalar Network500.node30 	query_homogenity_rate 	33.333333333333
scalar Network500.node30 	qrecord_time 	7882
scalar Network500.node30 	discovery_resolution_rate 	33.333333333333
scalar Network500.node400 	rate_of_requesters 	1
scalar Network500.node400 	number_of_resources 	27500
scalar Network500.node400 	time_period 	1
scalar Network500.node400 	number_of_messages 	5
scalar Network500.node400 	discovery_latency 	3180
scalar Network500.node400 	number_of_desired_resources 	20
scalar Network500.node400 	query_homogenity_rate 	33.333333333333
scalar Network500.node400 	qrecord_time 	7888
scalar Network500.node400 	discovery_resolution_rate 	33.333333333333
scalar Network500.node210 	rate_of_requesters 	1
scalar Network500.node210 	number_of_resources 	27500
scalar Network500.node210 	time_period 	1
scalar Network500.node210 	number_of_messages 	37
scalar Network500.node210 	discovery_latency 	3192
scalar Network500.node210 	number_of_desired_resources 	20
scalar Network500.node210 	query_homogenity_rate 	33.333333333333
scalar Network500.node210 	qrecord_time 	7888
scalar Network500.node210 	discovery_resolution_rate 	33.333333333333
scalar Network500.node430 	rate_of_requesters 	1
scalar Network500.node430 	number_of_resources 	27500
scalar Network500.node430 	time_period 	1
scalar Network500.node430 	number_of_messages 	14
scalar Network500.node430 	discovery_latency 	3144
scalar Network500.node430 	number_of_desired_resources 	20
scalar Network500.node430 	query_homogenity_rate 	33.333333333333
scalar Network500.node430 	qrecord_time 	7894
scalar Network500.node430 	discovery_resolution_rate 	33.333333333333
scalar Network500.node320 	rate_of_requesters 	1
scalar Network500.node320 	number_of_resources 	27500
scalar Network500.node320 	time_period 	1
scalar Network500.node320 	number_of_messages 	4
scalar Network500.node320 	discovery_latency 	3144
scalar Network500.node320 	number_of_desired_resources 	20
scalar Network500.node320 	query_homogenity_rate 	33.333333333333
scalar Network500.node320 	qrecord_time 	7894
scalar Network500.node320 	discovery_resolution_rate 	33.333333333333
scalar Network500.node260 	rate_of_requesters 	1
scalar Network500.node260 	number_of_resources 	27500
scalar Network500.node260 	time_period 	2
scalar Network500.node260 	number_of_messages 	12
scalar Network500.node260 	discovery_latency 	3024
scalar Network500.node260 	number_of_desired_resources 	20
scalar Network500.node260 	query_homogenity_rate 	33.333333333333
scalar Network500.node260 	qrecord_time 	7910.30034882
scalar Network500.node260 	discovery_resolution_rate 	33.333333333333
scalar Network500.node300 	rate_of_requesters 	1
scalar Network500.node300 	number_of_resources 	27500
scalar Network500.node300 	time_period 	1
scalar Network500.node300 	number_of_messages 	6
scalar Network500.node300 	discovery_latency 	3216
scalar Network500.node300 	number_of_desired_resources 	20
scalar Network500.node300 	query_homogenity_rate 	33.333333333333
scalar Network500.node300 	qrecord_time 	7942
scalar Network500.node300 	discovery_resolution_rate 	33.333333333333
scalar Network500.node10 	rate_of_requesters 	1
scalar Network500.node10 	number_of_resources 	27500
scalar Network500.node10 	time_period 	2
scalar Network500.node10 	number_of_messages 	75
scalar Network500.node10 	discovery_latency 	2916
scalar Network500.node10 	number_of_desired_resources 	20
scalar Network500.node10 	query_homogenity_rate 	33.333333333333
scalar Network500.node10 	qrecord_time 	8003.276011728
scalar Network500.node10 	discovery_resolution_rate 	33.333333333333
scalar Network500.node410 	rate_of_requesters 	1
scalar Network500.node410 	number_of_resources 	27500
scalar Network500.node410 	time_period 	2
scalar Network500.node410 	number_of_messages 	87
scalar Network500.node410 	discovery_latency 	3072
scalar Network500.node410 	number_of_desired_resources 	20
scalar Network500.node410 	query_homogenity_rate 	33.333333333333
scalar Network500.node410 	qrecord_time 	8038.016280184
scalar Network500.node410 	discovery_resolution_rate 	33.333333333333
scalar Network500.node420 	rate_of_requesters 	1
scalar Network500.node420 	number_of_resources 	27500
scalar Network500.node420 	time_period 	2
scalar Network500.node420 	number_of_messages 	69
scalar Network500.node420 	discovery_latency 	2952
scalar Network500.node420 	number_of_desired_resources 	20
scalar Network500.node420 	query_homogenity_rate 	33.333333333333
scalar Network500.node420 	qrecord_time 	8065.094606228
scalar Network500.node420 	discovery_resolution_rate 	33.333333333333
scalar Network500.node440 	rate_of_requesters 	1
scalar Network500.node440 	number_of_resources 	27500
scalar Network500.node440 	time_period 	2
scalar Network500.node440 	number_of_messages 	9
scalar Network500.node440 	discovery_latency 	3072
scalar Network500.node440 	number_of_desired_resources 	20
scalar Network500.node440 	query_homogenity_rate 	33.333333333333
scalar Network500.node440 	qrecord_time 	8074.794145926
scalar Network500.node440 	discovery_resolution_rate 	33.333333333333
scalar Network500.node30 	rate_of_requesters 	1
scalar Network500.node30 	number_of_resources 	27500
scalar Network500.node30 	time_period 	2
scalar Network500.node30 	number_of_messages 	69
scalar Network500.node30 	discovery_latency 	3084
scalar Network500.node30 	number_of_desired_resources 	20
scalar Network500.node30 	query_homogenity_rate 	33.333333333333
scalar Network500.node30 	qrecord_time 	8180.116080618
scalar Network500.node30 	discovery_resolution_rate 	33.333333333333
scalar Network500.node470 	rate_of_requesters 	1
scalar Network500.node470 	number_of_resources 	27500
scalar Network500.node470 	time_period 	3
scalar Network500.node470 	number_of_messages 	43
scalar Network500.node470 	discovery_latency 	3000
scalar Network500.node470 	number_of_desired_resources 	20
scalar Network500.node470 	query_homogenity_rate 	33.333333333333
scalar Network500.node470 	qrecord_time 	8574.511561304
scalar Network500.node470 	discovery_resolution_rate 	33.333333333333
scalar Network500.node120 	rate_of_requesters 	1
scalar Network500.node120 	number_of_resources 	27500
scalar Network500.node120 	time_period 	2
scalar Network500.node120 	number_of_messages 	41
scalar Network500.node120 	discovery_latency 	2988
scalar Network500.node120 	number_of_desired_resources 	20
scalar Network500.node120 	query_homogenity_rate 	33.333333333333
scalar Network500.node120 	qrecord_time 	8634.325673154
scalar Network500.node120 	discovery_resolution_rate 	33.333333333333
scalar Network500.node260 	rate_of_requesters 	1
scalar Network500.node260 	number_of_resources 	27500
scalar Network500.node260 	time_period 	3
scalar Network500.node260 	number_of_messages 	213
scalar Network500.node260 	discovery_latency 	4152
scalar Network500.node260 	number_of_desired_resources 	20
scalar Network500.node260 	query_homogenity_rate 	33.333333333333
scalar Network500.node260 	qrecord_time 	9236.343488737
scalar Network500.node260 	discovery_resolution_rate 	33.333333333333
scalar Network500.node30 	rate_of_requesters 	1
scalar Network500.node30 	number_of_resources 	27500
scalar Network500.node30 	time_period 	3
scalar Network500.node30 	number_of_messages 	229
scalar Network500.node30 	discovery_latency 	4404
scalar Network500.node30 	number_of_desired_resources 	20
scalar Network500.node30 	query_homogenity_rate 	33.333333333333
scalar Network500.node30 	qrecord_time 	10173.261098029
scalar Network500.node30 	discovery_resolution_rate 	16.666666666667
scalar Network500.node350 	rate_of_requesters 	1
scalar Network500.node350 	number_of_resources 	27500
scalar Network500.node350 	time_period 	3
scalar Network500.node350 	number_of_messages 	111
scalar Network500.node350 	discovery_latency 	3180
scalar Network500.node350 	number_of_desired_resources 	20
scalar Network500.node350 	query_homogenity_rate 	33.333333333333
scalar Network500.node350 	qrecord_time 	10384.521199965
scalar Network500.node350 	discovery_resolution_rate 	33.333333333333
scalar Network500.node340 	rate_of_requesters 	1
scalar Network500.node340 	number_of_resources 	27500
scalar Network500.node340 	time_period 	2
scalar Network500.node340 	number_of_messages 	2
scalar Network500.node340 	discovery_latency 	4440
scalar Network500.node340 	number_of_desired_resources 	20
scalar Network500.node340 	query_homogenity_rate 	33.333333333333
scalar Network500.node340 	qrecord_time 	10448.358864958
scalar Network500.node340 	discovery_resolution_rate 	0
scalar Network500.node400 	rate_of_requesters 	1
scalar Network500.node400 	number_of_resources 	27500
scalar Network500.node400 	time_period 	2
scalar Network500.node400 	number_of_messages 	2
scalar Network500.node400 	discovery_latency 	4392
scalar Network500.node400 	number_of_desired_resources 	20
scalar Network500.node400 	query_homogenity_rate 	33.333333333333
scalar Network500.node400 	qrecord_time 	10486.384763374
scalar Network500.node400 	discovery_resolution_rate 	0
scalar Network500.node230 	rate_of_requesters 	1
scalar Network500.node230 	number_of_resources 	27500
scalar Network500.node230 	time_period 	2
scalar Network500.node230 	number_of_messages 	2
scalar Network500.node230 	discovery_latency 	4452
scalar Network500.node230 	number_of_desired_resources 	20
scalar Network500.node230 	query_homogenity_rate 	33.333333333333
scalar Network500.node230 	qrecord_time 	10627.955102405
scalar Network500.node230 	discovery_resolution_rate 	0
scalar Network500.node0 	rate_of_requesters 	1
scalar Network500.node0 	number_of_resources 	27500
scalar Network500.node0 	time_period 	2
scalar Network500.node0 	number_of_messages 	75
scalar Network500.node0 	discovery_latency 	2952
scalar Network500.node0 	number_of_desired_resources 	20
scalar Network500.node0 	query_homogenity_rate 	33.333333333333
scalar Network500.node0 	qrecord_time 	10729.447186802
scalar Network500.node0 	discovery_resolution_rate 	33.333333333333
scalar Network500.node20 	rate_of_requesters 	1
scalar Network500.node20 	number_of_resources 	27500
scalar Network500.node20 	time_period 	2
scalar Network500.node20 	number_of_messages 	2
scalar Network500.node20 	discovery_latency 	4488
scalar Network500.node20 	number_of_desired_resources 	20
scalar Network500.node20 	query_homogenity_rate 	33.333333333333
scalar Network500.node20 	qrecord_time 	10853.307130446
scalar Network500.node20 	discovery_resolution_rate 	0
scalar Network500.node300 	rate_of_requesters 	1
scalar Network500.node300 	number_of_resources 	27500
scalar Network500.node300 	time_period 	2
scalar Network500.node300 	number_of_messages 	2
scalar Network500.node300 	discovery_latency 	4368
scalar Network500.node300 	number_of_desired_resources 	20
scalar Network500.node300 	query_homogenity_rate 	33.333333333333
scalar Network500.node300 	qrecord_time 	10856.471412862
scalar Network500.node300 	discovery_resolution_rate 	0
scalar Network500.node130 	rate_of_requesters 	1
scalar Network500.node130 	number_of_resources 	27500
scalar Network500.node130 	time_period 	2
scalar Network500.node130 	number_of_messages 	2
scalar Network500.node130 	discovery_latency 	4464
scalar Network500.node130 	number_of_desired_resources 	20
scalar Network500.node130 	query_homogenity_rate 	33.333333333333
scalar Network500.node130 	qrecord_time 	11010.625683061
scalar Network500.node130 	discovery_resolution_rate 	0
scalar Network500.node130 	rate_of_requesters 	1
scalar Network500.node130 	number_of_resources 	27500
scalar Network500.node130 	time_period 	3
scalar Network500.node130 	number_of_messages 	2
scalar Network500.node130 	discovery_latency 	4488
scalar Network500.node130 	number_of_desired_resources 	20
scalar Network500.node130 	query_homogenity_rate 	33.333333333333
scalar Network500.node130 	qrecord_time 	11072.274661595
scalar Network500.node130 	discovery_resolution_rate 	0
scalar Network500.node350 	rate_of_requesters 	1
scalar Network500.node350 	number_of_resources 	27500
scalar Network500.node350 	time_period 	2
scalar Network500.node350 	number_of_messages 	2
scalar Network500.node350 	discovery_latency 	4524
scalar Network500.node350 	number_of_desired_resources 	20
scalar Network500.node350 	query_homogenity_rate 	33.333333333333
scalar Network500.node350 	qrecord_time 	11076.332039667
scalar Network500.node350 	discovery_resolution_rate 	0
scalar Network500.node140 	rate_of_requesters 	1
scalar Network500.node140 	number_of_resources 	27500
scalar Network500.node140 	time_period 	2
scalar Network500.node140 	number_of_messages 	49
scalar Network500.node140 	discovery_latency 	3036
scalar Network500.node140 	number_of_desired_resources 	20
scalar Network500.node140 	query_homogenity_rate 	33.333333333333
scalar Network500.node140 	qrecord_time 	11133.516523512
scalar Network500.node140 	discovery_resolution_rate 	33.333333333333
scalar Network500.node410 	rate_of_requesters 	1
scalar Network500.node410 	number_of_resources 	27500
scalar Network500.node410 	time_period 	3
scalar Network500.node410 	number_of_messages 	56
scalar Network500.node410 	discovery_latency 	2928
scalar Network500.node410 	number_of_desired_resources 	20
scalar Network500.node410 	query_homogenity_rate 	33.333333333333
scalar Network500.node410 	qrecord_time 	11219.582693632
scalar Network500.node410 	discovery_resolution_rate 	33.333333333333
scalar Network500.node450 	rate_of_requesters 	1
scalar Network500.node450 	number_of_resources 	27500
scalar Network500.node450 	time_period 	2
scalar Network500.node450 	number_of_messages 	2
scalar Network500.node450 	discovery_latency 	4368
scalar Network500.node450 	number_of_desired_resources 	20
scalar Network500.node450 	query_homogenity_rate 	33.333333333333
scalar Network500.node450 	qrecord_time 	11231.389074396
scalar Network500.node450 	discovery_resolution_rate 	0
scalar Network500.node160 	rate_of_requesters 	1
scalar Network500.node160 	number_of_resources 	27500
scalar Network500.node160 	time_period 	2
scalar Network500.node160 	number_of_messages 	2
scalar Network500.node160 	discovery_latency 	4380
scalar Network500.node160 	number_of_desired_resources 	20
scalar Network500.node160 	query_homogenity_rate 	33.333333333333
scalar Network500.node160 	qrecord_time 	11259.985254954
scalar Network500.node160 	discovery_resolution_rate 	0
scalar Network500.node390 	rate_of_requesters 	1
scalar Network500.node390 	number_of_resources 	27500
scalar Network500.node390 	time_period 	3
scalar Network500.node390 	number_of_messages 	2
scalar Network500.node390 	discovery_latency 	4692
scalar Network500.node390 	number_of_desired_resources 	20
scalar Network500.node390 	query_homogenity_rate 	33.333333333333
scalar Network500.node390 	qrecord_time 	11278.037189891
scalar Network500.node390 	discovery_resolution_rate 	0
scalar Network500.node50 	rate_of_requesters 	1
scalar Network500.node50 	number_of_resources 	27500
scalar Network500.node50 	time_period 	2
scalar Network500.node50 	number_of_messages 	2
scalar Network500.node50 	discovery_latency 	4320
scalar Network500.node50 	number_of_desired_resources 	20
scalar Network500.node50 	query_homogenity_rate 	33.333333333333
scalar Network500.node50 	qrecord_time 	11368.054313198
scalar Network500.node50 	discovery_resolution_rate 	0
scalar Network500.node60 	rate_of_requesters 	1
scalar Network500.node60 	number_of_resources 	27500
scalar Network500.node60 	time_period 	2
scalar Network500.node60 	number_of_messages 	36
scalar Network500.node60 	discovery_latency 	3012
scalar Network500.node60 	number_of_desired_resources 	20
scalar Network500.node60 	query_homogenity_rate 	33.333333333333
scalar Network500.node60 	qrecord_time 	11386.853513304
scalar Network500.node60 	discovery_resolution_rate 	33.333333333333
scalar Network500.node310 	rate_of_requesters 	1
scalar Network500.node310 	number_of_resources 	27500
scalar Network500.node310 	time_period 	2
scalar Network500.node310 	number_of_messages 	57
scalar Network500.node310 	discovery_latency 	2952
scalar Network500.node310 	number_of_desired_resources 	20
scalar Network500.node310 	query_homogenity_rate 	33.333333333333
scalar Network500.node310 	qrecord_time 	11577.81288808
scalar Network500.node310 	discovery_resolution_rate 	33.333333333333
scalar Network500.node200 	rate_of_requesters 	1
scalar Network500.node200 	number_of_resources 	27500
scalar Network500.node200 	time_period 	2
scalar Network500.node200 	number_of_messages 	47
scalar Network500.node200 	discovery_latency 	2988
scalar Network500.node200 	number_of_desired_resources 	20
scalar Network500.node200 	query_homogenity_rate 	33.333333333333
scalar Network500.node200 	qrecord_time 	11601.85994407
scalar Network500.node200 	discovery_resolution_rate 	33.333333333333
scalar Network500.node480 	rate_of_requesters 	1
scalar Network500.node480 	number_of_resources 	27500
scalar Network500.node480 	time_period 	2
scalar Network500.node480 	number_of_messages 	2
scalar Network500.node480 	discovery_latency 	4320
scalar Network500.node480 	number_of_desired_resources 	20
scalar Network500.node480 	query_homogenity_rate 	33.333333333333
scalar Network500.node480 	qrecord_time 	11662.176996326
scalar Network500.node480 	discovery_resolution_rate 	0
scalar Network500.node330 	rate_of_requesters 	1
scalar Network500.node330 	number_of_resources 	27500
scalar Network500.node330 	time_period 	2
scalar Network500.node330 	number_of_messages 	59
scalar Network500.node330 	discovery_latency 	2748
scalar Network500.node330 	number_of_desired_resources 	20
scalar Network500.node330 	query_homogenity_rate 	33.333333333333
scalar Network500.node330 	qrecord_time 	11665.258323456
scalar Network500.node330 	discovery_resolution_rate 	66.666666666667
scalar Network500.node80 	rate_of_requesters 	1
scalar Network500.node80 	number_of_resources 	27500
scalar Network500.node80 	time_period 	2
scalar Network500.node80 	number_of_messages 	51
scalar Network500.node80 	discovery_latency 	3000
scalar Network500.node80 	number_of_desired_resources 	20
scalar Network500.node80 	query_homogenity_rate 	33.333333333333
scalar Network500.node80 	qrecord_time 	11692.549383104
scalar Network500.node80 	discovery_resolution_rate 	33.333333333333
scalar Network500.node280 	rate_of_requesters 	1
scalar Network500.node280 	number_of_resources 	27500
scalar Network500.node280 	time_period 	2
scalar Network500.node280 	number_of_messages 	50
scalar Network500.node280 	discovery_latency 	3048
scalar Network500.node280 	number_of_desired_resources 	20
scalar Network500.node280 	query_homogenity_rate 	33.333333333333
scalar Network500.node280 	qrecord_time 	11723.601912782
scalar Network500.node280 	discovery_resolution_rate 	33.333333333333
scalar Network500.node360 	rate_of_requesters 	1
scalar Network500.node360 	number_of_resources 	27500
scalar Network500.node360 	time_period 	2
scalar Network500.node360 	number_of_messages 	34
scalar Network500.node360 	discovery_latency 	2892
scalar Network500.node360 	number_of_desired_resources 	20
scalar Network500.node360 	query_homogenity_rate 	33.333333333333
scalar Network500.node360 	qrecord_time 	11745.166096984
scalar Network500.node360 	discovery_resolution_rate 	33.333333333333
scalar Network500.node30 	rate_of_requesters 	1
scalar Network500.node30 	number_of_resources 	27500
scalar Network500.node30 	time_period 	4
scalar Network500.node30 	number_of_messages 	2
scalar Network500.node30 	discovery_latency 	4428
scalar Network500.node30 	number_of_desired_resources 	20
scalar Network500.node30 	query_homogenity_rate 	33.333333333333
scalar Network500.node30 	qrecord_time 	11814.808933377
scalar Network500.node30 	discovery_resolution_rate 	0
scalar Network500.node190 	rate_of_requesters 	1
scalar Network500.node190 	number_of_resources 	27500
scalar Network500.node190 	time_period 	2
scalar Network500.node190 	number_of_messages 	2
scalar Network500.node190 	discovery_latency 	4440
scalar Network500.node190 	number_of_desired_resources 	20
scalar Network500.node190 	query_homogenity_rate 	33.333333333333
scalar Network500.node190 	qrecord_time 	11922.773348375
scalar Network500.node190 	discovery_resolution_rate 	0
scalar Network500.node360 	rate_of_requesters 	1
scalar Network500.node360 	number_of_resources 	27500
scalar Network500.node360 	time_period 	3
scalar Network500.node360 	number_of_messages 	13
scalar Network500.node360 	discovery_latency 	2868
scalar Network500.node360 	number_of_desired_resources 	20
scalar Network500.node360 	query_homogenity_rate 	33.333333333333
scalar Network500.node360 	qrecord_time 	12005.556390075
scalar Network500.node360 	discovery_resolution_rate 	66.666666666667
scalar Network500.node90 	rate_of_requesters 	1
scalar Network500.node90 	number_of_resources 	27500
scalar Network500.node90 	time_period 	2
scalar Network500.node90 	number_of_messages 	2
scalar Network500.node90 	discovery_latency 	4536
scalar Network500.node90 	number_of_desired_resources 	20
scalar Network500.node90 	query_homogenity_rate 	33.333333333333
scalar Network500.node90 	qrecord_time 	12149.185807054
scalar Network500.node90 	discovery_resolution_rate 	0
scalar Network500.node350 	rate_of_requesters 	1
scalar Network500.node350 	number_of_resources 	27500
scalar Network500.node350 	time_period 	4
scalar Network500.node350 	number_of_messages 	2
scalar Network500.node350 	discovery_latency 	4512
scalar Network500.node350 	number_of_desired_resources 	20
scalar Network500.node350 	query_homogenity_rate 	33.333333333333
scalar Network500.node350 	qrecord_time 	12188.392652859
scalar Network500.node350 	discovery_resolution_rate 	0
scalar Network500.node240 	rate_of_requesters 	1
scalar Network500.node240 	number_of_resources 	27500
scalar Network500.node240 	time_period 	2
scalar Network500.node240 	number_of_messages 	24
scalar Network500.node240 	discovery_latency 	2856
scalar Network500.node240 	number_of_desired_resources 	20
scalar Network500.node240 	query_homogenity_rate 	33.333333333333
scalar Network500.node240 	qrecord_time 	12202.361249229
scalar Network500.node240 	discovery_resolution_rate 	33.333333333333
scalar Network500.node320 	rate_of_requesters 	1
scalar Network500.node320 	number_of_resources 	27500
scalar Network500.node320 	time_period 	2
scalar Network500.node320 	number_of_messages 	2
scalar Network500.node320 	discovery_latency 	4536
scalar Network500.node320 	number_of_desired_resources 	20
scalar Network500.node320 	query_homogenity_rate 	33.333333333333
scalar Network500.node320 	qrecord_time 	12324.419900536
scalar Network500.node320 	discovery_resolution_rate 	0
scalar Network500.node420 	rate_of_requesters 	1
scalar Network500.node420 	number_of_resources 	27500
scalar Network500.node420 	time_period 	3
scalar Network500.node420 	number_of_messages 	29
scalar Network500.node420 	discovery_latency 	3036
scalar Network500.node420 	number_of_desired_resources 	20
scalar Network500.node420 	query_homogenity_rate 	33.333333333333
scalar Network500.node420 	qrecord_time 	12345.347990605
scalar Network500.node420 	discovery_resolution_rate 	33.333333333333
scalar Network500.node440 	rate_of_requesters 	1
scalar Network500.node440 	number_of_resources 	27500
scalar Network500.node440 	time_period 	3
scalar Network500.node440 	number_of_messages 	2
scalar Network500.node440 	discovery_latency 	4548
scalar Network500.node440 	number_of_desired_resources 	20
scalar Network500.node440 	query_homogenity_rate 	33.333333333333
scalar Network500.node440 	qrecord_time 	12413.7684109
scalar Network500.node440 	discovery_resolution_rate 	0
scalar Network500.node250 	rate_of_requesters 	1
scalar Network500.node250 	number_of_resources 	27500
scalar Network500.node250 	time_period 	2
scalar Network500.node250 	number_of_messages 	35
scalar Network500.node250 	discovery_latency 	2952
scalar Network500.node250 	number_of_desired_resources 	20
scalar Network500.node250 	query_homogenity_rate 	33.333333333333
scalar Network500.node250 	qrecord_time 	12468.11408533
scalar Network500.node250 	discovery_resolution_rate 	33.333333333333
scalar Network500.node110 	rate_of_requesters 	1
scalar Network500.node110 	number_of_resources 	27500
scalar Network500.node110 	time_period 	2
scalar Network500.node110 	number_of_messages 	179
scalar Network500.node110 	discovery_latency 	3000
scalar Network500.node110 	number_of_desired_resources 	20
scalar Network500.node110 	query_homogenity_rate 	33.333333333333
scalar Network500.node110 	qrecord_time 	12532.631867022
scalar Network500.node110 	discovery_resolution_rate 	50
scalar Network500.node350 	rate_of_requesters 	1
scalar Network500.node350 	number_of_resources 	27500
scalar Network500.node350 	time_period 	5
scalar Network500.node350 	number_of_messages 	49
scalar Network500.node350 	discovery_latency 	2796
scalar Network500.node350 	number_of_desired_resources 	20
scalar Network500.node350 	query_homogenity_rate 	33.333333333333
scalar Network500.node350 	qrecord_time 	12600.715833833
scalar Network500.node350 	discovery_resolution_rate 	66.666666666667
scalar Network500.node280 	rate_of_requesters 	1
scalar Network500.node280 	number_of_resources 	27500
scalar Network500.node280 	time_period 	3
scalar Network500.node280 	number_of_messages 	11
scalar Network500.node280 	discovery_latency 	2940
scalar Network500.node280 	number_of_desired_resources 	20
scalar Network500.node280 	query_homogenity_rate 	33.333333333333
scalar Network500.node280 	qrecord_time 	12759.869884262
scalar Network500.node280 	discovery_resolution_rate 	33.333333333333
scalar Network500.node410 	rate_of_requesters 	1
scalar Network500.node410 	number_of_resources 	27500
scalar Network500.node410 	time_period 	4
scalar Network500.node410 	number_of_messages 	57
scalar Network500.node410 	discovery_latency 	2748
scalar Network500.node410 	number_of_desired_resources 	20
scalar Network500.node410 	query_homogenity_rate 	33.333333333333
scalar Network500.node410 	qrecord_time 	12807.950346937
scalar Network500.node410 	discovery_resolution_rate 	66.666666666667
scalar Network500.node10 	rate_of_requesters 	1
scalar Network500.node10 	number_of_resources 	27500
scalar Network500.node10 	time_period 	3
scalar Network500.node10 	number_of_messages 	8
scalar Network500.node10 	discovery_latency 	2856
scalar Network500.node10 	number_of_desired_resources 	20
scalar Network500.node10 	query_homogenity_rate 	33.333333333333
scalar Network500.node10 	qrecord_time 	12895.361993586
scalar Network500.node10 	discovery_resolution_rate 	33.333333333333
scalar Network500.node130 	rate_of_requesters 	1
scalar Network500.node130 	number_of_resources 	27500
scalar Network500.node130 	time_period 	4
scalar Network500.node130 	number_of_messages 	6
scalar Network500.node130 	discovery_latency 	2928
scalar Network500.node130 	number_of_desired_resources 	20
scalar Network500.node130 	query_homogenity_rate 	33.333333333333
scalar Network500.node130 	qrecord_time 	13139.079264397
scalar Network500.node130 	discovery_resolution_rate 	33.333333333333
scalar Network500.node150 	rate_of_requesters 	1
scalar Network500.node150 	number_of_resources 	27500
scalar Network500.node150 	time_period 	2
scalar Network500.node150 	number_of_messages 	37
scalar Network500.node150 	discovery_latency 	3036
scalar Network500.node150 	number_of_desired_resources 	20
scalar Network500.node150 	query_homogenity_rate 	33.333333333333
scalar Network500.node150 	qrecord_time 	13186.143775454
scalar Network500.node150 	discovery_resolution_rate 	33.333333333333
scalar Network500.node340 	rate_of_requesters 	1
scalar Network500.node340 	number_of_resources 	27500
scalar Network500.node340 	time_period 	3
scalar Network500.node340 	number_of_messages 	24
scalar Network500.node340 	discovery_latency 	3084
scalar Network500.node340 	number_of_desired_resources 	20
scalar Network500.node340 	query_homogenity_rate 	33.333333333333
scalar Network500.node340 	qrecord_time 	13192.419208348
scalar Network500.node340 	discovery_resolution_rate 	33.333333333333
scalar Network500.node360 	rate_of_requesters 	1
scalar Network500.node360 	number_of_resources 	27500
scalar Network500.node360 	time_period 	4
scalar Network500.node360 	number_of_messages 	29
scalar Network500.node360 	discovery_latency 	3120
scalar Network500.node360 	number_of_desired_resources 	20
scalar Network500.node360 	query_homogenity_rate 	33.333333333333
scalar Network500.node360 	qrecord_time 	13319.179219852
scalar Network500.node360 	discovery_resolution_rate 	33.333333333333
scalar Network500.node80 	rate_of_requesters 	1
scalar Network500.node80 	number_of_resources 	27500
scalar Network500.node80 	time_period 	3
scalar Network500.node80 	number_of_messages 	70
scalar Network500.node80 	discovery_latency 	2808
scalar Network500.node80 	number_of_desired_resources 	20
scalar Network500.node80 	query_homogenity_rate 	33.333333333333
scalar Network500.node80 	qrecord_time 	13381.042928831
scalar Network500.node80 	discovery_resolution_rate 	66.666666666667
scalar Network500.node310 	rate_of_requesters 	1
scalar Network500.node310 	number_of_resources 	27500
scalar Network500.node310 	time_period 	3
scalar Network500.node310 	number_of_messages 	13
scalar Network500.node310 	discovery_latency 	2928
scalar Network500.node310 	number_of_desired_resources 	20
scalar Network500.node310 	query_homogenity_rate 	33.333333333333
scalar Network500.node310 	qrecord_time 	13434.99685149
scalar Network500.node310 	discovery_resolution_rate 	33.333333333333
scalar Network500.node250 	rate_of_requesters 	1
scalar Network500.node250 	number_of_resources 	27500
scalar Network500.node250 	time_period 	3
scalar Network500.node250 	number_of_messages 	19
scalar Network500.node250 	discovery_latency 	3084
scalar Network500.node250 	number_of_desired_resources 	20
scalar Network500.node250 	query_homogenity_rate 	33.333333333333
scalar Network500.node250 	qrecord_time 	13440.975699098
scalar Network500.node250 	discovery_resolution_rate 	33.333333333333
scalar Network500.node410 	rate_of_requesters 	1
scalar Network500.node410 	number_of_resources 	27500
scalar Network500.node410 	time_period 	5
scalar Network500.node410 	number_of_messages 	30
scalar Network500.node410 	discovery_latency 	3120
scalar Network500.node410 	number_of_desired_resources 	20
scalar Network500.node410 	query_homogenity_rate 	33.333333333333
scalar Network500.node410 	qrecord_time 	13460.688218097
scalar Network500.node410 	discovery_resolution_rate 	33.333333333333
scalar Network500.node30 	rate_of_requesters 	1
scalar Network500.node30 	number_of_resources 	27500
scalar Network500.node30 	time_period 	5
scalar Network500.node30 	number_of_messages 	6
scalar Network500.node30 	discovery_latency 	2952
scalar Network500.node30 	number_of_desired_resources 	20
scalar Network500.node30 	query_homogenity_rate 	33.333333333333
scalar Network500.node30 	qrecord_time 	13480.118354663
scalar Network500.node30 	discovery_resolution_rate 	33.333333333333
scalar Network500.node90 	rate_of_requesters 	1
scalar Network500.node90 	number_of_resources 	27500
scalar Network500.node90 	time_period 	3
scalar Network500.node90 	number_of_messages 	63
scalar Network500.node90 	discovery_latency 	3048
scalar Network500.node90 	number_of_desired_resources 	20
scalar Network500.node90 	query_homogenity_rate 	33.333333333333
scalar Network500.node90 	qrecord_time 	13518.080110556
scalar Network500.node90 	discovery_resolution_rate 	33.333333333333
scalar Network500.node340 	rate_of_requesters 	1
scalar Network500.node340 	number_of_resources 	27500
scalar Network500.node340 	time_period 	4
scalar Network500.node340 	number_of_messages 	10
scalar Network500.node340 	discovery_latency 	3096
scalar Network500.node340 	number_of_desired_resources 	20
scalar Network500.node340 	query_homogenity_rate 	33.333333333333
scalar Network500.node340 	qrecord_time 	13698.684292048
scalar Network500.node340 	discovery_resolution_rate 	33.333333333333
scalar Network500.node300 	rate_of_requesters 	1
scalar Network500.node300 	number_of_resources 	27500
scalar Network500.node300 	time_period 	3
scalar Network500.node300 	number_of_messages 	16
scalar Network500.node300 	discovery_latency 	3000
scalar Network500.node300 	number_of_desired_resources 	20
scalar Network500.node300 	query_homogenity_rate 	33.333333333333
scalar Network500.node300 	qrecord_time 	13768.335003415
scalar Network500.node300 	discovery_resolution_rate 	33.333333333333
scalar Network500.node450 	rate_of_requesters 	1
scalar Network500.node450 	number_of_resources 	27500
scalar Network500.node450 	time_period 	3
scalar Network500.node450 	number_of_messages 	29
scalar Network500.node450 	discovery_latency 	2856
scalar Network500.node450 	number_of_desired_resources 	20
scalar Network500.node450 	query_homogenity_rate 	33.333333333333
scalar Network500.node450 	qrecord_time 	13972.877501737
scalar Network500.node450 	discovery_resolution_rate 	33.333333333333
scalar Network500.node30 	rate_of_requesters 	1
scalar Network500.node30 	number_of_resources 	27500
scalar Network500.node30 	time_period 	6
scalar Network500.node30 	number_of_messages 	13
scalar Network500.node30 	discovery_latency 	3048
scalar Network500.node30 	number_of_desired_resources 	20
scalar Network500.node30 	query_homogenity_rate 	33.333333333333
scalar Network500.node30 	qrecord_time 	14022.421911599
scalar Network500.node30 	discovery_resolution_rate 	33.333333333333
scalar Network500.node210 	rate_of_requesters 	1
scalar Network500.node210 	number_of_resources 	27500
scalar Network500.node210 	time_period 	2
scalar Network500.node210 	number_of_messages 	19
scalar Network500.node210 	discovery_latency 	3144
scalar Network500.node210 	number_of_desired_resources 	20
scalar Network500.node210 	query_homogenity_rate 	33.333333333333
scalar Network500.node210 	qrecord_time 	14084.795106409
scalar Network500.node210 	discovery_resolution_rate 	33.333333333333
scalar Network500.node130 	rate_of_requesters 	1
scalar Network500.node130 	number_of_resources 	27500
scalar Network500.node130 	time_period 	5
scalar Network500.node130 	number_of_messages 	6
scalar Network500.node130 	discovery_latency 	3072
scalar Network500.node130 	number_of_desired_resources 	20
scalar Network500.node130 	query_homogenity_rate 	33.333333333333
scalar Network500.node130 	qrecord_time 	14148.797491152
scalar Network500.node130 	discovery_resolution_rate 	33.333333333333
scalar Network500.node50 	rate_of_requesters 	1
scalar Network500.node50 	number_of_resources 	27500
scalar Network500.node50 	time_period 	3
scalar Network500.node50 	number_of_messages 	7
scalar Network500.node50 	discovery_latency 	3072
scalar Network500.node50 	number_of_desired_resources 	20
scalar Network500.node50 	query_homogenity_rate 	33.333333333333
scalar Network500.node50 	qrecord_time 	14331.972726012
scalar Network500.node50 	discovery_resolution_rate 	33.333333333333
scalar Network500.node460 	rate_of_requesters 	1
scalar Network500.node460 	number_of_resources 	27500
scalar Network500.node460 	time_period 	2
scalar Network500.node460 	number_of_messages 	5
scalar Network500.node460 	discovery_latency 	2880
scalar Network500.node460 	number_of_desired_resources 	20
scalar Network500.node460 	query_homogenity_rate 	33.333333333333
scalar Network500.node460 	qrecord_time 	14597.961654498
scalar Network500.node460 	discovery_resolution_rate 	33.333333333333
scalar Network500.node350 	rate_of_requesters 	1
scalar Network500.node350 	number_of_resources 	27500
scalar Network500.node350 	time_period 	6
scalar Network500.node350 	number_of_messages 	10
scalar Network500.node350 	discovery_latency 	3048
scalar Network500.node350 	number_of_desired_resources 	20
scalar Network500.node350 	query_homogenity_rate 	33.333333333333
scalar Network500.node350 	qrecord_time 	14744.392807231
scalar Network500.node350 	discovery_resolution_rate 	33.333333333333
scalar Network500.node480 	rate_of_requesters 	1
scalar Network500.node480 	number_of_resources 	27500
scalar Network500.node480 	time_period 	3
scalar Network500.node480 	number_of_messages 	9
scalar Network500.node480 	discovery_latency 	3072
scalar Network500.node480 	number_of_desired_resources 	20
scalar Network500.node480 	query_homogenity_rate 	33.333333333333
scalar Network500.node480 	qrecord_time 	14882.529003939
scalar Network500.node480 	discovery_resolution_rate 	33.333333333333
scalar Network500.node140 	rate_of_requesters 	1
scalar Network500.node140 	number_of_resources 	27500
scalar Network500.node140 	time_period 	3
scalar Network500.node140 	number_of_messages 	20
scalar Network500.node140 	discovery_latency 	2964
scalar Network500.node140 	number_of_desired_resources 	20
scalar Network500.node140 	query_homogenity_rate 	33.333333333333
scalar Network500.node140 	qrecord_time 	14938.39685107
scalar Network500.node140 	discovery_resolution_rate 	33.333333333333
scalar Network500.node460 	rate_of_requesters 	1
scalar Network500.node460 	number_of_resources 	27500
scalar Network500.node460 	time_period 	3
scalar Network500.node460 	number_of_messages 	10
scalar Network500.node460 	discovery_latency 	2952
scalar Network500.node460 	number_of_desired_resources 	20
scalar Network500.node460 	query_homogenity_rate 	33.333333333333
scalar Network500.node460 	qrecord_time 	14939.555212248
scalar Network500.node460 	discovery_resolution_rate 	33.333333333333
scalar Network500.node290 	rate_of_requesters 	1
scalar Network500.node290 	number_of_resources 	27500
scalar Network500.node290 	time_period 	2
scalar Network500.node290 	number_of_messages 	4
scalar Network500.node290 	discovery_latency 	3144
scalar Network500.node290 	number_of_desired_resources 	20
scalar Network500.node290 	query_homogenity_rate 	33.333333333333
scalar Network500.node290 	qrecord_time 	15013.938942714
scalar Network500.node290 	discovery_resolution_rate 	33.333333333333
scalar Network500.node50 	rate_of_requesters 	1
scalar Network500.node50 	number_of_resources 	27500
scalar Network500.node50 	time_period 	4
scalar Network500.node50 	number_of_messages 	7
scalar Network500.node50 	discovery_latency 	3144
scalar Network500.node50 	number_of_desired_resources 	20
scalar Network500.node50 	query_homogenity_rate 	33.333333333333
scalar Network500.node50 	qrecord_time 	15021.498750523
scalar Network500.node50 	discovery_resolution_rate 	33.333333333333
scalar Network500.node160 	rate_of_requesters 	1
scalar Network500.node160 	number_of_resources 	27500
scalar Network500.node160 	time_period 	3
scalar Network500.node160 	number_of_messages 	11
scalar Network500.node160 	discovery_latency 	3060
scalar Network500.node160 	number_of_desired_resources 	20
scalar Network500.node160 	query_homogenity_rate 	33.333333333333
scalar Network500.node160 	qrecord_time 	15024.886415439
scalar Network500.node160 	discovery_resolution_rate 	33.333333333333
scalar Network500.node110 	rate_of_requesters 	1
scalar Network500.node110 	number_of_resources 	27500
scalar Network500.node110 	time_period 	3
scalar Network500.node110 	number_of_messages 	11
scalar Network500.node110 	discovery_latency 	3156
scalar Network500.node110 	number_of_desired_resources 	20
scalar Network500.node110 	query_homogenity_rate 	33.333333333333
scalar Network500.node110 	qrecord_time 	15042.4459943
scalar Network500.node110 	discovery_resolution_rate 	33.333333333333
scalar Network500.node420 	rate_of_requesters 	1
scalar Network500.node420 	number_of_resources 	27500
scalar Network500.node420 	time_period 	4
scalar Network500.node420 	number_of_messages 	7
scalar Network500.node420 	discovery_latency 	3180
scalar Network500.node420 	number_of_desired_resources 	20
scalar Network500.node420 	query_homogenity_rate 	33.333333333333
scalar Network500.node420 	qrecord_time 	15144.644625963
scalar Network500.node420 	discovery_resolution_rate 	33.333333333333
scalar Network500.node260 	rate_of_requesters 	1
scalar Network500.node260 	number_of_resources 	27500
scalar Network500.node260 	time_period 	4
scalar Network500.node260 	number_of_messages 	46
scalar Network500.node260 	discovery_latency 	3036
scalar Network500.node260 	number_of_desired_resources 	20
scalar Network500.node260 	query_homogenity_rate 	33.333333333333
scalar Network500.node260 	qrecord_time 	15239.113078875
scalar Network500.node260 	discovery_resolution_rate 	33.333333333333
scalar Network500.node400 	rate_of_requesters 	1
scalar Network500.node400 	number_of_resources 	27500
scalar Network500.node400 	time_period 	3
scalar Network500.node400 	number_of_messages 	25
scalar Network500.node400 	discovery_latency 	3072
scalar Network500.node400 	number_of_desired_resources 	20
scalar Network500.node400 	query_homogenity_rate 	33.333333333333
scalar Network500.node400 	qrecord_time 	15511.456598964
scalar Network500.node400 	discovery_resolution_rate 	33.333333333333
scalar Network500.node260 	rate_of_requesters 	1
scalar Network500.node260 	number_of_resources 	27500
scalar Network500.node260 	time_period 	5
scalar Network500.node260 	number_of_messages 	13
scalar Network500.node260 	discovery_latency 	3000
scalar Network500.node260 	number_of_desired_resources 	20
scalar Network500.node260 	query_homogenity_rate 	33.333333333333
scalar Network500.node260 	qrecord_time 	15563.982898445
scalar Network500.node260 	discovery_resolution_rate 	33.333333333333
scalar Network500.node150 	rate_of_requesters 	1
scalar Network500.node150 	number_of_resources 	27500
scalar Network500.node150 	time_period 	3
scalar Network500.node150 	number_of_messages 	11
scalar Network500.node150 	discovery_latency 	3132
scalar Network500.node150 	number_of_desired_resources 	20
scalar Network500.node150 	query_homogenity_rate 	33.333333333333
scalar Network500.node150 	qrecord_time 	15668.60913394
scalar Network500.node150 	discovery_resolution_rate 	33.333333333333
scalar Network500.node140 	rate_of_requesters 	1
scalar Network500.node140 	number_of_resources 	27500
scalar Network500.node140 	time_period 	4
scalar Network500.node140 	number_of_messages 	40
scalar Network500.node140 	discovery_latency 	3048
scalar Network500.node140 	number_of_desired_resources 	20
scalar Network500.node140 	query_homogenity_rate 	33.333333333333
scalar Network500.node140 	qrecord_time 	15735.445968323
scalar Network500.node140 	discovery_resolution_rate 	33.333333333333
scalar Network500.node110 	rate_of_requesters 	1
scalar Network500.node110 	number_of_resources 	27500
scalar Network500.node110 	time_period 	4
scalar Network500.node110 	number_of_messages 	10
scalar Network500.node110 	discovery_latency 	2904
scalar Network500.node110 	number_of_desired_resources 	20
scalar Network500.node110 	query_homogenity_rate 	33.333333333333
scalar Network500.node110 	qrecord_time 	15898.257249508
scalar Network500.node110 	discovery_resolution_rate 	33.333333333333
scalar Network500.node450 	rate_of_requesters 	1
scalar Network500.node450 	number_of_resources 	27500
scalar Network500.node450 	time_period 	4
scalar Network500.node450 	number_of_messages 	10
scalar Network500.node450 	discovery_latency 	3192
scalar Network500.node450 	number_of_desired_resources 	20
scalar Network500.node450 	query_homogenity_rate 	33.333333333333
scalar Network500.node450 	qrecord_time 	15964.481254277
scalar Network500.node450 	discovery_resolution_rate 	33.333333333333
scalar Network500.node260 	rate_of_requesters 	1
scalar Network500.node260 	number_of_resources 	27500
scalar Network500.node260 	time_period 	6
scalar Network500.node260 	number_of_messages 	31
scalar Network500.node260 	discovery_latency 	2988
scalar Network500.node260 	number_of_desired_resources 	20
scalar Network500.node260 	query_homogenity_rate 	33.333333333333
scalar Network500.node260 	qrecord_time 	15981.204101972
scalar Network500.node260 	discovery_resolution_rate 	33.333333333333
scalar Network500.node110 	rate_of_requesters 	1
scalar Network500.node110 	number_of_resources 	27500
scalar Network500.node110 	time_period 	5
scalar Network500.node110 	number_of_messages 	17
scalar Network500.node110 	discovery_latency 	2892
scalar Network500.node110 	number_of_desired_resources 	20
scalar Network500.node110 	query_homogenity_rate 	33.333333333333
scalar Network500.node110 	qrecord_time 	16029.655593454
scalar Network500.node110 	discovery_resolution_rate 	33.333333333333
scalar Network500.node230 	rate_of_requesters 	1
scalar Network500.node230 	number_of_resources 	27500
scalar Network500.node230 	time_period 	3
scalar Network500.node230 	number_of_messages 	15
scalar Network500.node230 	discovery_latency 	3060
scalar Network500.node230 	number_of_desired_resources 	20
scalar Network500.node230 	query_homogenity_rate 	33.333333333333
scalar Network500.node230 	qrecord_time 	16044.911696018
scalar Network500.node230 	discovery_resolution_rate 	33.333333333333
scalar Network500.node240 	rate_of_requesters 	1
scalar Network500.node240 	number_of_resources 	27500
scalar Network500.node240 	time_period 	3
scalar Network500.node240 	number_of_messages 	24
scalar Network500.node240 	discovery_latency 	3108
scalar Network500.node240 	number_of_desired_resources 	20
scalar Network500.node240 	query_homogenity_rate 	33.333333333333
scalar Network500.node240 	qrecord_time 	16129.560537445
scalar Network500.node240 	discovery_resolution_rate 	33.333333333333
scalar Network500.node260 	rate_of_requesters 	1
scalar Network500.node260 	number_of_resources 	27500
scalar Network500.node260 	time_period 	7
scalar Network500.node260 	number_of_messages 	34
scalar Network500.node260 	discovery_latency 	2796
scalar Network500.node260 	number_of_desired_resources 	20
scalar Network500.node260 	query_homogenity_rate 	33.333333333333
scalar Network500.node260 	qrecord_time 	16135.356882543
scalar Network500.node260 	discovery_resolution_rate 	66.666666666667
scalar Network500.node180 	rate_of_requesters 	1
scalar Network500.node180 	number_of_resources 	27500
scalar Network500.node180 	time_period 	2
scalar Network500.node180 	number_of_messages 	54
scalar Network500.node180 	discovery_latency 	3012
scalar Network500.node180 	number_of_desired_resources 	20
scalar Network500.node180 	query_homogenity_rate 	33.333333333333
scalar Network500.node180 	qrecord_time 	16256.89123387
scalar Network500.node180 	discovery_resolution_rate 	33.333333333333
scalar Network500.node200 	rate_of_requesters 	1
scalar Network500.node200 	number_of_resources 	27500
scalar Network500.node200 	time_period 	3
scalar Network500.node200 	number_of_messages 	10
scalar Network500.node200 	discovery_latency 	3012
scalar Network500.node200 	number_of_desired_resources 	20
scalar Network500.node200 	query_homogenity_rate 	33.333333333333
scalar Network500.node200 	qrecord_time 	16383.930492241
scalar Network500.node200 	discovery_resolution_rate 	33.333333333333
scalar Network500.node350 	rate_of_requesters 	1
scalar Network500.node350 	number_of_resources 	27500
scalar Network500.node350 	time_period 	7
scalar Network500.node350 	number_of_messages 	6
scalar Network500.node350 	discovery_latency 	3048
scalar Network500.node350 	number_of_desired_resources 	20
scalar Network500.node350 	query_homogenity_rate 	33.333333333333
scalar Network500.node350 	qrecord_time 	16405.101812829
scalar Network500.node350 	discovery_resolution_rate 	33.333333333333
scalar Network500.node480 	rate_of_requesters 	1
scalar Network500.node480 	number_of_resources 	27500
scalar Network500.node480 	time_period 	4
scalar Network500.node480 	number_of_messages 	34
scalar Network500.node480 	discovery_latency 	2940
scalar Network500.node480 	number_of_desired_resources 	20
scalar Network500.node480 	query_homogenity_rate 	33.333333333333
scalar Network500.node480 	qrecord_time 	16428.941228782
scalar Network500.node480 	discovery_resolution_rate 	33.333333333333
scalar Network500.node170 	rate_of_requesters 	1
scalar Network500.node170 	number_of_resources 	27500
scalar Network500.node170 	time_period 	2
scalar Network500.node170 	number_of_messages 	22
scalar Network500.node170 	discovery_latency 	3120
scalar Network500.node170 	number_of_desired_resources 	20
scalar Network500.node170 	query_homogenity_rate 	33.333333333333
scalar Network500.node170 	qrecord_time 	16452.83730079
scalar Network500.node170 	discovery_resolution_rate 	33.333333333333
scalar Network500.node290 	rate_of_requesters 	1
scalar Network500.node290 	number_of_resources 	27500
scalar Network500.node290 	time_period 	3
scalar Network500.node290 	number_of_messages 	21
scalar Network500.node290 	discovery_latency 	3096
scalar Network500.node290 	number_of_desired_resources 	20
scalar Network500.node290 	query_homogenity_rate 	33.333333333333
scalar Network500.node290 	qrecord_time 	16640.787315352
scalar Network500.node290 	discovery_resolution_rate 	33.333333333333
scalar Network500.node190 	rate_of_requesters 	1
scalar Network500.node190 	number_of_resources 	27500
scalar Network500.node190 	time_period 	3
scalar Network500.node190 	number_of_messages 	9
scalar Network500.node190 	discovery_latency 	3204
scalar Network500.node190 	number_of_desired_resources 	20
scalar Network500.node190 	query_homogenity_rate 	33.333333333333
scalar Network500.node190 	qrecord_time 	16654.783875268
scalar Network500.node190 	discovery_resolution_rate 	33.333333333333
scalar Network500.node80 	rate_of_requesters 	1
scalar Network500.node80 	number_of_resources 	27500
scalar Network500.node80 	time_period 	4
scalar Network500.node80 	number_of_messages 	30
scalar Network500.node80 	discovery_latency 	3132
scalar Network500.node80 	number_of_desired_resources 	20
scalar Network500.node80 	query_homogenity_rate 	33.333333333333
scalar Network500.node80 	qrecord_time 	16678.984638321
scalar Network500.node80 	discovery_resolution_rate 	33.333333333333
scalar Network500.node190 	rate_of_requesters 	1
scalar Network500.node190 	number_of_resources 	27500
scalar Network500.node190 	time_period 	4
scalar Network500.node190 	number_of_messages 	9
scalar Network500.node190 	discovery_latency 	3132
scalar Network500.node190 	number_of_desired_resources 	20
scalar Network500.node190 	query_homogenity_rate 	33.333333333333
scalar Network500.node190 	qrecord_time 	16788.658764361
scalar Network500.node190 	discovery_resolution_rate 	33.333333333333
scalar Network500.node220 	rate_of_requesters 	1
scalar Network500.node220 	number_of_resources 	27500
scalar Network500.node220 	time_period 	2
scalar Network500.node220 	number_of_messages 	15
scalar Network500.node220 	discovery_latency 	3156
scalar Network500.node220 	number_of_desired_resources 	20
scalar Network500.node220 	query_homogenity_rate 	33.333333333333
scalar Network500.node220 	qrecord_time 	16799.155776198
scalar Network500.node220 	discovery_resolution_rate 	33.333333333333
scalar Network500.node0 	rate_of_requesters 	1
scalar Network500.node0 	number_of_resources 	27500
scalar Network500.node0 	time_period 	3
scalar Network500.node0 	number_of_messages 	17
scalar Network500.node0 	discovery_latency 	3144
scalar Network500.node0 	number_of_desired_resources 	20
scalar Network500.node0 	query_homogenity_rate 	33.333333333333
scalar Network500.node0 	qrecord_time 	17000.286024014
scalar Network500.node0 	discovery_resolution_rate 	33.333333333333
scalar Network500.node460 	rate_of_requesters 	1
scalar Network500.node460 	number_of_resources 	27500
scalar Network500.node460 	time_period 	4
scalar Network500.node460 	number_of_messages 	25
scalar Network500.node460 	discovery_latency 	2964
scalar Network500.node460 	number_of_desired_resources 	20
scalar Network500.node460 	query_homogenity_rate 	33.333333333333
scalar Network500.node460 	qrecord_time 	17033.050484481
scalar Network500.node460 	discovery_resolution_rate 	33.333333333333
scalar Network500.node390 	rate_of_requesters 	1
scalar Network500.node390 	number_of_resources 	27500
scalar Network500.node390 	time_period 	4
scalar Network500.node390 	number_of_messages 	38
scalar Network500.node390 	discovery_latency 	3108
scalar Network500.node390 	number_of_desired_resources 	20
scalar Network500.node390 	query_homogenity_rate 	33.333333333333
scalar Network500.node390 	qrecord_time 	17049.879848383
scalar Network500.node390 	discovery_resolution_rate 	33.333333333333
scalar Network500.node130 	rate_of_requesters 	1
scalar Network500.node130 	number_of_resources 	27500
scalar Network500.node130 	time_period 	6
scalar Network500.node130 	number_of_messages 	73
scalar Network500.node130 	discovery_latency 	3108
scalar Network500.node130 	number_of_desired_resources 	20
scalar Network500.node130 	query_homogenity_rate 	33.333333333333
scalar Network500.node130 	qrecord_time 	17577.389571124
scalar Network500.node130 	discovery_resolution_rate 	33.333333333333
scalar Network500.node240 	rate_of_requesters 	1
scalar Network500.node240 	number_of_resources 	27500
scalar Network500.node240 	time_period 	4
scalar Network500.node240 	number_of_messages 	75
scalar Network500.node240 	discovery_latency 	3204
scalar Network500.node240 	number_of_desired_resources 	20
scalar Network500.node240 	query_homogenity_rate 	33.333333333333
scalar Network500.node240 	qrecord_time 	17604.426281712
scalar Network500.node240 	discovery_resolution_rate 	33.333333333333
scalar Network500.node80 	rate_of_requesters 	1
scalar Network500.node80 	number_of_resources 	27500
scalar Network500.node80 	time_period 	6
scalar Network500.node80 	number_of_messages 	58
scalar Network500.node80 	discovery_latency 	3048
scalar Network500.node80 	number_of_desired_resources 	20
scalar Network500.node80 	query_homogenity_rate 	33.333333333333
scalar Network500.node80 	qrecord_time 	17773.256764783
scalar Network500.node80 	discovery_resolution_rate 	33.333333333333
scalar Network500.node190 	rate_of_requesters 	1
scalar Network500.node190 	number_of_resources 	27500
scalar Network500.node190 	time_period 	5
scalar Network500.node190 	number_of_messages 	58
scalar Network500.node190 	discovery_latency 	2976
scalar Network500.node190 	number_of_desired_resources 	20
scalar Network500.node190 	query_homogenity_rate 	33.333333333333
scalar Network500.node190 	qrecord_time 	17792.888834343
scalar Network500.node190 	discovery_resolution_rate 	33.333333333333
scalar Network500.node250 	rate_of_requesters 	1
scalar Network500.node250 	number_of_resources 	27500
scalar Network500.node250 	time_period 	4
scalar Network500.node250 	number_of_messages 	10
scalar Network500.node250 	discovery_latency 	3072
scalar Network500.node250 	number_of_desired_resources 	20
scalar Network500.node250 	query_homogenity_rate 	33.333333333333
scalar Network500.node250 	qrecord_time 	17828.418504403
scalar Network500.node250 	discovery_resolution_rate 	33.333333333333
scalar Network500.node300 	rate_of_requesters 	1
scalar Network500.node300 	number_of_resources 	27500
scalar Network500.node300 	time_period 	6
scalar Network500.node300 	number_of_messages 	57
scalar Network500.node300 	discovery_latency 	3156
scalar Network500.node300 	number_of_desired_resources 	20
scalar Network500.node300 	query_homogenity_rate 	33.333333333333
scalar Network500.node300 	qrecord_time 	17937.593766303
scalar Network500.node300 	discovery_resolution_rate 	33.333333333333
scalar Network500.node100 	rate_of_requesters 	1
scalar Network500.node100 	number_of_resources 	27500
scalar Network500.node100 	time_period 	2
scalar Network500.node100 	number_of_messages 	2
scalar Network500.node100 	discovery_latency 	4476
scalar Network500.node100 	number_of_desired_resources 	20
scalar Network500.node100 	query_homogenity_rate 	33.333333333333
scalar Network500.node100 	qrecord_time 	18078.678427426
scalar Network500.node100 	discovery_resolution_rate 	0
scalar Network500.node40 	rate_of_requesters 	1
scalar Network500.node40 	number_of_resources 	27500
scalar Network500.node40 	time_period 	2
scalar Network500.node40 	number_of_messages 	229
scalar Network500.node40 	discovery_latency 	4380
scalar Network500.node40 	number_of_desired_resources 	20
scalar Network500.node40 	query_homogenity_rate 	33.333333333333
scalar Network500.node40 	qrecord_time 	18124.349110456
scalar Network500.node40 	discovery_resolution_rate 	16.666666666667
scalar Network500.node430 	rate_of_requesters 	1
scalar Network500.node430 	number_of_resources 	27500
scalar Network500.node430 	time_period 	3
scalar Network500.node430 	number_of_messages 	25
scalar Network500.node430 	discovery_latency 	2772
scalar Network500.node430 	number_of_desired_resources 	20
scalar Network500.node430 	query_homogenity_rate 	33.333333333333
scalar Network500.node430 	qrecord_time 	18151.885278143
scalar Network500.node430 	discovery_resolution_rate 	66.666666666667
[...]
scalar Network500.node380 	query_homogenity_rate 	33.333333333333
scalar Network500.node380 	qrecord_time 	47307.023943347
scalar Network500.node380 	discovery_resolution_rate 	33.333333333333
scalar Network500.node180 	rate_of_requesters 	1
scalar Network500.node180 	number_of_resources 	27500
scalar Network500.node180 	time_period 	9
scalar Network500.node180 	number_of_messages 	16
scalar Network500.node180 	discovery_latency 	2856
scalar Network500.node180 	number_of_desired_resources 	20
scalar Network500.node180 	query_homogenity_rate 	33.333333333333
scalar Network500.node180 	qrecord_time 	47835.31309778
scalar Network500.node180 	discovery_resolution_rate 	66.666666666667
scalar Network500.node390 	rate_of_requesters 	1
scalar Network500.node390 	number_of_resources 	27500
scalar Network500.node390 	time_period 	10
scalar Network500.node390 	number_of_messages 	27
scalar Network500.node390 	discovery_latency 	2808
scalar Network500.node390 	number_of_desired_resources 	20
scalar Network500.node390 	query_homogenity_rate 	33.333333333333
scalar Network500.node390 	qrecord_time 	48531.028677409
scalar Network500.node390 	discovery_resolution_rate 	66.666666666667
scalar Network500.node180 	rate_of_requesters 	1
scalar Network500.node180 	number_of_resources 	27500
scalar Network500.node180 	time_period 	10
scalar Network500.node180 	number_of_messages 	21
scalar Network500.node180 	discovery_latency 	2820
scalar Network500.node180 	number_of_desired_resources 	20
scalar Network500.node180 	query_homogenity_rate 	33.333333333333
scalar Network500.node180 	qrecord_time 	48702.34953913
scalar Network500.node180 	discovery_resolution_rate 	66.666666666667
scalar Network500.node90 	rate_of_requesters 	1
scalar Network500.node90 	number_of_resources 	27500
scalar Network500.node90 	time_period 	9
scalar Network500.node90 	number_of_messages 	139
scalar Network500.node90 	discovery_latency 	3012
scalar Network500.node90 	number_of_desired_resources 	20
scalar Network500.node90 	query_homogenity_rate 	33.333333333333
scalar Network500.node90 	qrecord_time 	49008.925206102
scalar Network500.node90 	discovery_resolution_rate 	50
scalar Network500.node140 	rate_of_requesters 	1
scalar Network500.node140 	number_of_resources 	27500
scalar Network500.node140 	time_period 	9
scalar Network500.node140 	number_of_messages 	13
scalar Network500.node140 	discovery_latency 	3060
scalar Network500.node140 	number_of_desired_resources 	20
scalar Network500.node140 	query_homogenity_rate 	33.333333333333
scalar Network500.node140 	qrecord_time 	49490.191475294
scalar Network500.node140 	discovery_resolution_rate 	33.333333333333
scalar Network500.node60 	rate_of_requesters 	1
scalar Network500.node60 	number_of_resources 	27500
scalar Network500.node60 	time_period 	9
scalar Network500.node60 	number_of_messages 	25
scalar Network500.node60 	discovery_latency 	2700
scalar Network500.node60 	number_of_desired_resources 	20
scalar Network500.node60 	query_homogenity_rate 	33.333333333333
scalar Network500.node60 	qrecord_time 	50443.114827707
scalar Network500.node60 	discovery_resolution_rate 	66.666666666667
scalar Network500.node90 	rate_of_requesters 	1
scalar Network500.node90 	number_of_resources 	27500
scalar Network500.node90 	time_period 	10
scalar Network500.node90 	number_of_messages 	54
scalar Network500.node90 	discovery_latency 	2724
scalar Network500.node90 	number_of_desired_resources 	20
scalar Network500.node90 	query_homogenity_rate 	33.333333333333
scalar Network500.node90 	qrecord_time 	50617.066344299
scalar Network500.node90 	discovery_resolution_rate 	66.666666666667
scalar Network500.node380 	rate_of_requesters 	1
scalar Network500.node380 	number_of_resources 	27500
scalar Network500.node380 	time_period 	10
scalar Network500.node380 	number_of_messages 	9
scalar Network500.node380 	discovery_latency 	3024
scalar Network500.node380 	number_of_desired_resources 	20
scalar Network500.node380 	query_homogenity_rate 	33.333333333333
scalar Network500.node380 	qrecord_time 	51476.085013703
scalar Network500.node380 	discovery_resolution_rate 	33.333333333333
scalar Network500.node60 	rate_of_requesters 	1
scalar Network500.node60 	number_of_resources 	27500
scalar Network500.node60 	time_period 	10
scalar Network500.node60 	number_of_messages 	134
scalar Network500.node60 	discovery_latency 	3000
scalar Network500.node60 	number_of_desired_resources 	20
scalar Network500.node60 	query_homogenity_rate 	33.333333333333
scalar Network500.node60 	qrecord_time 	51503.710312876
scalar Network500.node60 	discovery_resolution_rate 	50
scalar Network500.node70 	rate_of_requesters 	1
scalar Network500.node70 	number_of_resources 	27500
scalar Network500.node70 	time_period 	9
scalar Network500.node70 	number_of_messages 	6
scalar Network500.node70 	discovery_latency 	3108
scalar Network500.node70 	number_of_desired_resources 	20
scalar Network500.node70 	query_homogenity_rate 	33.333333333333
scalar Network500.node70 	qrecord_time 	51563.045529041
scalar Network500.node70 	discovery_resolution_rate 	33.333333333333
scalar Network500.node170 	rate_of_requesters 	1
scalar Network500.node170 	number_of_resources 	27500
scalar Network500.node170 	time_period 	7
scalar Network500.node170 	number_of_messages 	143
scalar Network500.node170 	discovery_latency 	3108
scalar Network500.node170 	number_of_desired_resources 	20
scalar Network500.node170 	query_homogenity_rate 	33.333333333333
scalar Network500.node170 	qrecord_time 	52400.229364644
scalar Network500.node170 	discovery_resolution_rate 	50
scalar Network500.node490 	rate_of_requesters 	1
scalar Network500.node490 	number_of_resources 	27500
scalar Network500.node490 	time_period 	4
scalar Network500.node490 	number_of_messages 	8
scalar Network500.node490 	discovery_latency 	3120
scalar Network500.node490 	number_of_desired_resources 	20
scalar Network500.node490 	query_homogenity_rate 	33.333333333333
scalar Network500.node490 	qrecord_time 	52901.064406187
scalar Network500.node490 	discovery_resolution_rate 	33.333333333333
scalar Network500.node140 	rate_of_requesters 	1
scalar Network500.node140 	number_of_resources 	27500
scalar Network500.node140 	time_period 	10
scalar Network500.node140 	number_of_messages 	19
scalar Network500.node140 	discovery_latency 	3180
scalar Network500.node140 	number_of_desired_resources 	20
scalar Network500.node140 	query_homogenity_rate 	33.333333333333
scalar Network500.node140 	qrecord_time 	53329.422159631
scalar Network500.node140 	discovery_resolution_rate 	33.333333333333
scalar Network500.node230 	rate_of_requesters 	1
scalar Network500.node230 	number_of_resources 	27500
scalar Network500.node230 	time_period 	9
scalar Network500.node230 	number_of_messages 	13
scalar Network500.node230 	discovery_latency 	3156
scalar Network500.node230 	number_of_desired_resources 	20
scalar Network500.node230 	query_homogenity_rate 	33.333333333333
scalar Network500.node230 	qrecord_time 	53402.328800706
scalar Network500.node230 	discovery_resolution_rate 	33.333333333333
scalar Network500.node470 	rate_of_requesters 	1
scalar Network500.node470 	number_of_resources 	27500
scalar Network500.node470 	time_period 	6
scalar Network500.node470 	number_of_messages 	10
scalar Network500.node470 	discovery_latency 	2880
scalar Network500.node470 	number_of_desired_resources 	20
scalar Network500.node470 	query_homogenity_rate 	33.333333333333
scalar Network500.node470 	qrecord_time 	53907.624410759
scalar Network500.node470 	discovery_resolution_rate 	33.333333333333
scalar Network500.node150 	rate_of_requesters 	1
scalar Network500.node150 	number_of_resources 	27500
scalar Network500.node150 	time_period 	7
scalar Network500.node150 	number_of_messages 	11
scalar Network500.node150 	discovery_latency 	3012
scalar Network500.node150 	number_of_desired_resources 	20
scalar Network500.node150 	query_homogenity_rate 	33.333333333333
scalar Network500.node150 	qrecord_time 	54173.163848679
scalar Network500.node150 	discovery_resolution_rate 	33.333333333333
scalar Network500.node230 	rate_of_requesters 	1
scalar Network500.node230 	number_of_resources 	27500
scalar Network500.node230 	time_period 	10
scalar Network500.node230 	number_of_messages 	6
scalar Network500.node230 	discovery_latency 	3120
scalar Network500.node230 	number_of_desired_resources 	20
scalar Network500.node230 	query_homogenity_rate 	33.333333333333
scalar Network500.node230 	qrecord_time 	54229.027325766
scalar Network500.node230 	discovery_resolution_rate 	33.333333333333
scalar Network500.node490 	rate_of_requesters 	1
scalar Network500.node490 	number_of_resources 	27500
scalar Network500.node490 	time_period 	5
scalar Network500.node490 	number_of_messages 	8
scalar Network500.node490 	discovery_latency 	2964
scalar Network500.node490 	number_of_desired_resources 	20
scalar Network500.node490 	query_homogenity_rate 	33.333333333333
scalar Network500.node490 	qrecord_time 	54277.834012527
scalar Network500.node490 	discovery_resolution_rate 	33.333333333333
scalar Network500.node170 	rate_of_requesters 	1
scalar Network500.node170 	number_of_resources 	27500
scalar Network500.node170 	time_period 	8
scalar Network500.node170 	number_of_messages 	14
scalar Network500.node170 	discovery_latency 	3024
scalar Network500.node170 	number_of_desired_resources 	20
scalar Network500.node170 	query_homogenity_rate 	33.333333333333
scalar Network500.node170 	qrecord_time 	54333.826748478
scalar Network500.node170 	discovery_resolution_rate 	33.333333333333
scalar Network500.node70 	rate_of_requesters 	1
scalar Network500.node70 	number_of_resources 	27500
scalar Network500.node70 	time_period 	10
scalar Network500.node70 	number_of_messages 	24
scalar Network500.node70 	discovery_latency 	2832
scalar Network500.node70 	number_of_desired_resources 	20
scalar Network500.node70 	query_homogenity_rate 	33.333333333333
scalar Network500.node70 	qrecord_time 	54409.539026137
scalar Network500.node70 	discovery_resolution_rate 	66.666666666667
scalar Network500.node470 	rate_of_requesters 	1
scalar Network500.node470 	number_of_resources 	27500
scalar Network500.node470 	time_period 	7
scalar Network500.node470 	number_of_messages 	32
scalar Network500.node470 	discovery_latency 	2832
scalar Network500.node470 	number_of_desired_resources 	20
scalar Network500.node470 	query_homogenity_rate 	33.333333333333
scalar Network500.node470 	qrecord_time 	54492.633204504
scalar Network500.node470 	discovery_resolution_rate 	66.666666666667
scalar Network500.node490 	rate_of_requesters 	1
scalar Network500.node490 	number_of_resources 	27500
scalar Network500.node490 	time_period 	6
scalar Network500.node490 	number_of_messages 	12
scalar Network500.node490 	discovery_latency 	2964
scalar Network500.node490 	number_of_desired_resources 	20
scalar Network500.node490 	query_homogenity_rate 	33.333333333333
scalar Network500.node490 	qrecord_time 	54738.330577369
scalar Network500.node490 	discovery_resolution_rate 	33.333333333333
scalar Network500.node410 	rate_of_requesters 	1
scalar Network500.node410 	number_of_resources 	27500
scalar Network500.node410 	time_period 	10
scalar Network500.node410 	number_of_messages 	5
scalar Network500.node410 	discovery_latency 	3072
scalar Network500.node410 	number_of_desired_resources 	20
scalar Network500.node410 	query_homogenity_rate 	33.333333333333
scalar Network500.node410 	qrecord_time 	55258.334835339
scalar Network500.node410 	discovery_resolution_rate 	33.333333333333
scalar Network500.node270 	rate_of_requesters 	1
scalar Network500.node270 	number_of_resources 	27500
scalar Network500.node270 	time_period 	10
scalar Network500.node270 	number_of_messages 	6
scalar Network500.node270 	discovery_latency 	3024
scalar Network500.node270 	number_of_desired_resources 	20
scalar Network500.node270 	query_homogenity_rate 	33.333333333333
scalar Network500.node270 	qrecord_time 	55288.283316434
scalar Network500.node270 	discovery_resolution_rate 	33.333333333333
scalar Network500.node220 	rate_of_requesters 	1
scalar Network500.node220 	number_of_resources 	27500
scalar Network500.node220 	time_period 	10
scalar Network500.node220 	number_of_messages 	28
scalar Network500.node220 	discovery_latency 	2844
scalar Network500.node220 	number_of_desired_resources 	20
scalar Network500.node220 	query_homogenity_rate 	33.333333333333
scalar Network500.node220 	qrecord_time 	57146.52169278
scalar Network500.node220 	discovery_resolution_rate 	66.666666666667
scalar Network500.node470 	rate_of_requesters 	1
scalar Network500.node470 	number_of_resources 	27500
scalar Network500.node470 	time_period 	8
scalar Network500.node470 	number_of_messages 	16
scalar Network500.node470 	discovery_latency 	2736
scalar Network500.node470 	number_of_desired_resources 	20
scalar Network500.node470 	query_homogenity_rate 	33.333333333333
scalar Network500.node470 	qrecord_time 	58122.131965125
scalar Network500.node470 	discovery_resolution_rate 	66.666666666667
scalar Network500.node490 	rate_of_requesters 	1
scalar Network500.node490 	number_of_resources 	27500
scalar Network500.node490 	time_period 	7
scalar Network500.node490 	number_of_messages 	30
scalar Network500.node490 	discovery_latency 	2724
scalar Network500.node490 	number_of_desired_resources 	20
scalar Network500.node490 	query_homogenity_rate 	33.333333333333
scalar Network500.node490 	qrecord_time 	59398.817407758
scalar Network500.node490 	discovery_resolution_rate 	66.666666666667
scalar Network500.node490 	rate_of_requesters 	1
scalar Network500.node490 	number_of_resources 	27500
scalar Network500.node490 	time_period 	8
scalar Network500.node490 	number_of_messages 	30
scalar Network500.node490 	discovery_latency 	2784
scalar Network500.node490 	number_of_desired_resources 	20
scalar Network500.node490 	query_homogenity_rate 	33.333333333333
scalar Network500.node490 	qrecord_time 	59755.972556088
scalar Network500.node490 	discovery_resolution_rate 	66.666666666667
scalar Network500.node40 	rate_of_requesters 	1
scalar Network500.node40 	number_of_resources 	27500
scalar Network500.node40 	time_period 	8
scalar Network500.node40 	number_of_messages 	18
scalar Network500.node40 	discovery_latency 	2688
scalar Network500.node40 	number_of_desired_resources 	20
scalar Network500.node40 	query_homogenity_rate 	33.333333333333
scalar Network500.node40 	qrecord_time 	59962.719073605
scalar Network500.node40 	discovery_resolution_rate 	66.666666666667
scalar Network500.node40 	rate_of_requesters 	1
scalar Network500.node40 	number_of_resources 	27500
scalar Network500.node40 	time_period 	9
scalar Network500.node40 	number_of_messages 	38
scalar Network500.node40 	discovery_latency 	2664
scalar Network500.node40 	number_of_desired_resources 	20
scalar Network500.node40 	query_homogenity_rate 	33.333333333333
scalar Network500.node40 	qrecord_time 	62016.67687175
scalar Network500.node40 	discovery_resolution_rate 	66.666666666667
scalar Network500.node470 	rate_of_requesters 	1
scalar Network500.node470 	number_of_resources 	27500
scalar Network500.node470 	time_period 	9
scalar Network500.node470 	number_of_messages 	38
scalar Network500.node470 	discovery_latency 	2796
scalar Network500.node470 	number_of_desired_resources 	20
scalar Network500.node470 	query_homogenity_rate 	33.333333333333
scalar Network500.node470 	qrecord_time 	62734.664626643
scalar Network500.node470 	discovery_resolution_rate 	66.666666666667
scalar Network500.node170 	rate_of_requesters 	1
scalar Network500.node170 	number_of_resources 	27500
scalar Network500.node170 	time_period 	9
scalar Network500.node170 	number_of_messages 	37
scalar Network500.node170 	discovery_latency 	2784
scalar Network500.node170 	number_of_desired_resources 	20
scalar Network500.node170 	query_homogenity_rate 	33.333333333333
scalar Network500.node170 	qrecord_time 	63215.064600505
scalar Network500.node170 	discovery_resolution_rate 	66.666666666667
scalar Network500.node470 	rate_of_requesters 	1
scalar Network500.node470 	number_of_resources 	27500
scalar Network500.node470 	time_period 	10
scalar Network500.node470 	number_of_messages 	32
scalar Network500.node470 	discovery_latency 	2796
scalar Network500.node470 	number_of_desired_resources 	20
scalar Network500.node470 	query_homogenity_rate 	33.333333333333
scalar Network500.node470 	qrecord_time 	63688.907373878
scalar Network500.node470 	discovery_resolution_rate 	66.666666666667
scalar Network500.node40 	rate_of_requesters 	1
scalar Network500.node40 	number_of_resources 	27500
scalar Network500.node40 	time_period 	10
scalar Network500.node40 	number_of_messages 	26
scalar Network500.node40 	discovery_latency 	2676
scalar Network500.node40 	number_of_desired_resources 	20
scalar Network500.node40 	query_homogenity_rate 	33.333333333333
scalar Network500.node40 	qrecord_time 	66967.923525369
scalar Network500.node40 	discovery_resolution_rate 	66.666666666667
scalar Network500.node150 	rate_of_requesters 	1
scalar Network500.node150 	number_of_resources 	27500
scalar Network500.node150 	time_period 	8
scalar Network500.node150 	number_of_messages 	16
scalar Network500.node150 	discovery_latency 	2664
scalar Network500.node150 	number_of_desired_resources 	20
scalar Network500.node150 	query_homogenity_rate 	33.333333333333
scalar Network500.node150 	qrecord_time 	67289.695158119
scalar Network500.node150 	discovery_resolution_rate 	66.666666666667
scalar Network500.node150 	rate_of_requesters 	1
scalar Network500.node150 	number_of_resources 	27500
scalar Network500.node150 	time_period 	9
scalar Network500.node150 	number_of_messages 	20
scalar Network500.node150 	discovery_latency 	2868
scalar Network500.node150 	number_of_desired_resources 	20
scalar Network500.node150 	query_homogenity_rate 	33.333333333333
scalar Network500.node150 	qrecord_time 	70263.295008529
scalar Network500.node150 	discovery_resolution_rate 	66.666666666667
scalar Network500.node490 	rate_of_requesters 	1
scalar Network500.node490 	number_of_resources 	27500
scalar Network500.node490 	time_period 	9
scalar Network500.node490 	number_of_messages 	22
scalar Network500.node490 	discovery_latency 	2832
scalar Network500.node490 	number_of_desired_resources 	20
scalar Network500.node490 	query_homogenity_rate 	33.333333333333
scalar Network500.node490 	qrecord_time 	72950.53984434
scalar Network500.node490 	discovery_resolution_rate 	66.666666666667
scalar Network500.node490 	rate_of_requesters 	1
scalar Network500.node490 	number_of_resources 	27500
scalar Network500.node490 	time_period 	10
scalar Network500.node490 	number_of_messages 	24
scalar Network500.node490 	discovery_latency 	2832
scalar Network500.node490 	number_of_desired_resources 	20
scalar Network500.node490 	query_homogenity_rate 	33.333333333333
scalar Network500.node490 	qrecord_time 	73643.47542641
scalar Network500.node490 	discovery_resolution_rate 	66.666666666667
scalar Network500.node150 	rate_of_requesters 	1
scalar Network500.node150 	number_of_resources 	27500
scalar Network500.node150 	time_period 	10
scalar Network500.node150 	number_of_messages 	16
scalar Network500.node150 	discovery_latency 	2808
scalar Network500.node150 	number_of_desired_resources 	20
scalar Network500.node150 	query_homogenity_rate 	33.333333333333
scalar Network500.node150 	qrecord_time 	74884.258459683
scalar Network500.node150 	discovery_resolution_rate 	66.666666666667
scalar Network500.node170 	rate_of_requesters 	1
scalar Network500.node170 	number_of_resources 	27500
scalar Network500.node170 	time_period 	10
scalar Network500.node170 	number_of_messages 	31
scalar Network500.node170 	discovery_latency 	2760
scalar Network500.node170 	number_of_desired_resources 	20
scalar Network500.node170 	query_homogenity_rate 	33.333333333333
scalar Network500.node170 	qrecord_time 	77830.698512596
scalar Network500.node170 	discovery_resolution_rate 	66.666666666667
