version 2
run net600-1-20150623-20:10:47-21057
attr as 1
attr configname net600
attr datetime 20150623-20:10:47
attr dnor 20
attr experiment net600
attr inifile omnetpp.ini
attr iterationvars "$rhdrq=3, $dnor=20, $as=1"
attr iterationvars2 "$rhdrq=3, $dnor=20, $as=1, $repetition=1"
attr measurement "$rhdrq=3, $dnor=20, $as=1"
attr network Network600
attr processid 21057
attr repetition 1
attr replication #1
attr resultdir results
attr rhdrq 3
attr runnumber 1
attr seedset 1

scalar . 	as 	1
scalar . 	dnor 	20
scalar . 	rhdrq 	3
scalar Network600.node440 	rate_of_requesters 	1
scalar Network600.node440 	number_of_resources 	33000
scalar Network600.node440 	time_period 	1
scalar Network600.node440 	number_of_messages 	18
scalar Network600.node440 	discovery_latency 	108
scalar Network600.node440 	number_of_desired_resources 	20
scalar Network600.node440 	query_homogenity_rate 	33.333333333333
scalar Network600.node440 	qrecord_time 	4858
scalar Network600.node440 	discovery_resolution_rate 	100
scalar Network600.node320 	rate_of_requesters 	1
scalar Network600.node320 	number_of_resources 	33000
scalar Network600.node320 	time_period 	1
scalar Network600.node320 	number_of_messages 	29
scalar Network600.node320 	discovery_latency 	216
scalar Network600.node320 	number_of_desired_resources 	20
scalar Network600.node320 	query_homogenity_rate 	33.333333333333
scalar Network600.node320 	qrecord_time 	4858
scalar Network600.node320 	discovery_resolution_rate 	100
scalar Network600.node90 	rate_of_requesters 	1
scalar Network600.node90 	number_of_resources 	33000
scalar Network600.node90 	time_period 	1
scalar Network600.node90 	number_of_messages 	21
scalar Network600.node90 	discovery_latency 	156
scalar Network600.node90 	number_of_desired_resources 	20
scalar Network600.node90 	query_homogenity_rate 	33.333333333333
scalar Network600.node90 	qrecord_time 	4864
scalar Network600.node90 	discovery_resolution_rate 	100
scalar Network600.node80 	rate_of_requesters 	1
scalar Network600.node80 	number_of_resources 	33000
scalar Network600.node80 	time_period 	1
scalar Network600.node80 	number_of_messages 	15
scalar Network600.node80 	discovery_latency 	180
scalar Network600.node80 	number_of_desired_resources 	20
scalar Network600.node80 	query_homogenity_rate 	33.333333333333
scalar Network600.node80 	qrecord_time 	4870
scalar Network600.node80 	discovery_resolution_rate 	100
scalar Network600.node150 	rate_of_requesters 	1
scalar Network600.node150 	number_of_resources 	33000
scalar Network600.node150 	time_period 	1
scalar Network600.node150 	number_of_messages 	21
scalar Network600.node150 	discovery_latency 	168
scalar Network600.node150 	number_of_desired_resources 	20
scalar Network600.node150 	query_homogenity_rate 	33.333333333333
scalar Network600.node150 	qrecord_time 	4906
scalar Network600.node150 	discovery_resolution_rate 	100
scalar Network600.node10 	rate_of_requesters 	1
scalar Network600.node10 	number_of_resources 	33000
scalar Network600.node10 	time_period 	1
scalar Network600.node10 	number_of_messages 	19
scalar Network600.node10 	discovery_latency 	204
scalar Network600.node10 	number_of_desired_resources 	20
scalar Network600.node10 	query_homogenity_rate 	33.333333333333
scalar Network600.node10 	qrecord_time 	4918
scalar Network600.node10 	discovery_resolution_rate 	100
scalar Network600.node330 	rate_of_requesters 	1
scalar Network600.node330 	number_of_resources 	33000
scalar Network600.node330 	time_period 	1
scalar Network600.node330 	number_of_messages 	22
scalar Network600.node330 	discovery_latency 	336
scalar Network600.node330 	number_of_desired_resources 	20
scalar Network600.node330 	query_homogenity_rate 	33.333333333333
scalar Network600.node330 	qrecord_time 	5044
scalar Network600.node330 	discovery_resolution_rate 	100
scalar Network600.node580 	rate_of_requesters 	1
scalar Network600.node580 	number_of_resources 	33000
scalar Network600.node580 	time_period 	1
scalar Network600.node580 	number_of_messages 	31
scalar Network600.node580 	discovery_latency 	324
scalar Network600.node580 	number_of_desired_resources 	20
scalar Network600.node580 	query_homogenity_rate 	33.333333333333
scalar Network600.node580 	qrecord_time 	5056
scalar Network600.node580 	discovery_resolution_rate 	100
scalar Network600.node40 	rate_of_requesters 	1
scalar Network600.node40 	number_of_resources 	33000
scalar Network600.node40 	time_period 	1
scalar Network600.node40 	number_of_messages 	34
scalar Network600.node40 	discovery_latency 	420
scalar Network600.node40 	number_of_desired_resources 	20
scalar Network600.node40 	query_homogenity_rate 	33.333333333333
scalar Network600.node40 	qrecord_time 	5128
scalar Network600.node40 	discovery_resolution_rate 	100
scalar Network600.node30 	rate_of_requesters 	1
scalar Network600.node30 	number_of_resources 	33000
scalar Network600.node30 	time_period 	1
scalar Network600.node30 	number_of_messages 	102
scalar Network600.node30 	discovery_latency 	3276
scalar Network600.node30 	number_of_desired_resources 	20
scalar Network600.node30 	query_homogenity_rate 	33.333333333333
scalar Network600.node30 	qrecord_time 	8026
scalar Network600.node30 	discovery_resolution_rate 	66.666666666667
scalar Network600.node400 	rate_of_requesters 	1
scalar Network600.node400 	number_of_resources 	33000
scalar Network600.node400 	time_period 	1
scalar Network600.node400 	number_of_messages 	16
scalar Network600.node400 	discovery_latency 	3432
scalar Network600.node400 	number_of_desired_resources 	20
scalar Network600.node400 	query_homogenity_rate 	33.333333333333
scalar Network600.node400 	qrecord_time 	8146
scalar Network600.node400 	discovery_resolution_rate 	66.666666666667
scalar Network600.node470 	rate_of_requesters 	1
scalar Network600.node470 	number_of_resources 	33000
scalar Network600.node470 	time_period 	1
scalar Network600.node470 	number_of_messages 	26
scalar Network600.node470 	discovery_latency 	3408
scalar Network600.node470 	number_of_desired_resources 	20
scalar Network600.node470 	query_homogenity_rate 	33.333333333333
scalar Network600.node470 	qrecord_time 	8164
scalar Network600.node470 	discovery_resolution_rate 	66.666666666667
scalar Network600.node70 	rate_of_requesters 	1
scalar Network600.node70 	number_of_resources 	33000
scalar Network600.node70 	time_period 	1
scalar Network600.node70 	number_of_messages 	28
scalar Network600.node70 	discovery_latency 	3432
scalar Network600.node70 	number_of_desired_resources 	20
scalar Network600.node70 	query_homogenity_rate 	33.333333333333
scalar Network600.node70 	qrecord_time 	8164
scalar Network600.node70 	discovery_resolution_rate 	66.666666666667
scalar Network600.node560 	rate_of_requesters 	1
scalar Network600.node560 	number_of_resources 	33000
scalar Network600.node560 	time_period 	1
scalar Network600.node560 	number_of_messages 	14
scalar Network600.node560 	discovery_latency 	3420
scalar Network600.node560 	number_of_desired_resources 	20
scalar Network600.node560 	query_homogenity_rate 	33.333333333333
scalar Network600.node560 	qrecord_time 	8170
scalar Network600.node560 	discovery_resolution_rate 	66.666666666667
scalar Network600.node570 	rate_of_requesters 	1
scalar Network600.node570 	number_of_resources 	33000
scalar Network600.node570 	time_period 	1
scalar Network600.node570 	number_of_messages 	11
scalar Network600.node570 	discovery_latency 	3444
scalar Network600.node570 	number_of_desired_resources 	20
scalar Network600.node570 	query_homogenity_rate 	33.333333333333
scalar Network600.node570 	qrecord_time 	8182
scalar Network600.node570 	discovery_resolution_rate 	66.666666666667
scalar Network600.node360 	rate_of_requesters 	1
scalar Network600.node360 	number_of_resources 	33000
scalar Network600.node360 	time_period 	1
scalar Network600.node360 	number_of_messages 	13
scalar Network600.node360 	discovery_latency 	3456
scalar Network600.node360 	number_of_desired_resources 	20
scalar Network600.node360 	query_homogenity_rate 	33.333333333333
scalar Network600.node360 	qrecord_time 	8188
scalar Network600.node360 	discovery_resolution_rate 	66.666666666667
scalar Network600.node370 	rate_of_requesters 	1
scalar Network600.node370 	number_of_resources 	33000
scalar Network600.node370 	time_period 	1
scalar Network600.node370 	number_of_messages 	16
scalar Network600.node370 	discovery_latency 	3432
scalar Network600.node370 	number_of_desired_resources 	20
scalar Network600.node370 	query_homogenity_rate 	33.333333333333
scalar Network600.node370 	qrecord_time 	8188
scalar Network600.node370 	discovery_resolution_rate 	66.666666666667
scalar Network600.node210 	rate_of_requesters 	1
scalar Network600.node210 	number_of_resources 	33000
scalar Network600.node210 	time_period 	1
scalar Network600.node210 	number_of_messages 	13
scalar Network600.node210 	discovery_latency 	3456
scalar Network600.node210 	number_of_desired_resources 	20
scalar Network600.node210 	query_homogenity_rate 	33.333333333333
scalar Network600.node210 	qrecord_time 	8218
scalar Network600.node210 	discovery_resolution_rate 	66.666666666667
scalar Network600.node290 	rate_of_requesters 	1
scalar Network600.node290 	number_of_resources 	33000
scalar Network600.node290 	time_period 	1
scalar Network600.node290 	number_of_messages 	32
scalar Network600.node290 	discovery_latency 	3564
scalar Network600.node290 	number_of_desired_resources 	20
scalar Network600.node290 	query_homogenity_rate 	33.333333333333
scalar Network600.node290 	qrecord_time 	8314
scalar Network600.node290 	discovery_resolution_rate 	66.666666666667
scalar Network600.node170 	rate_of_requesters 	1
scalar Network600.node170 	number_of_resources 	33000
scalar Network600.node170 	time_period 	1
scalar Network600.node170 	number_of_messages 	24
scalar Network600.node170 	discovery_latency 	3576
scalar Network600.node170 	number_of_desired_resources 	20
scalar Network600.node170 	query_homogenity_rate 	33.333333333333
scalar Network600.node170 	qrecord_time 	8326
scalar Network600.node170 	discovery_resolution_rate 	66.666666666667
scalar Network600.node430 	rate_of_requesters 	1
scalar Network600.node430 	number_of_resources 	33000
scalar Network600.node430 	time_period 	1
scalar Network600.node430 	number_of_messages 	26
scalar Network600.node430 	discovery_latency 	3834
scalar Network600.node430 	number_of_desired_resources 	20
scalar Network600.node430 	query_homogenity_rate 	33.333333333333
scalar Network600.node430 	qrecord_time 	8554
scalar Network600.node430 	discovery_resolution_rate 	66.666666666667
scalar Network600.node0 	rate_of_requesters 	1
scalar Network600.node0 	number_of_resources 	33000
scalar Network600.node0 	time_period 	1
scalar Network600.node0 	number_of_messages 	2
scalar Network600.node0 	discovery_latency 	3876
scalar Network600.node0 	number_of_desired_resources 	20
scalar Network600.node0 	query_homogenity_rate 	33.333333333333
scalar Network600.node0 	qrecord_time 	8566
scalar Network600.node0 	discovery_resolution_rate 	33.333333333333
scalar Network600.node550 	rate_of_requesters 	1
scalar Network600.node550 	number_of_resources 	33000
scalar Network600.node550 	time_period 	1
scalar Network600.node550 	number_of_messages 	8
scalar Network600.node550 	discovery_latency 	3888
scalar Network600.node550 	number_of_desired_resources 	20
scalar Network600.node550 	query_homogenity_rate 	33.333333333333
scalar Network600.node550 	qrecord_time 	8608
scalar Network600.node550 	discovery_resolution_rate 	66.666666666667
scalar Network600.node500 	rate_of_requesters 	1
scalar Network600.node500 	number_of_resources 	33000
scalar Network600.node500 	time_period 	1
scalar Network600.node500 	number_of_messages 	6
scalar Network600.node500 	discovery_latency 	3882
scalar Network600.node500 	number_of_desired_resources 	20
scalar Network600.node500 	query_homogenity_rate 	33.333333333333
scalar Network600.node500 	qrecord_time 	8614
scalar Network600.node500 	discovery_resolution_rate 	33.333333333333
scalar Network600.node530 	rate_of_requesters 	1
scalar Network600.node530 	number_of_resources 	33000
scalar Network600.node530 	time_period 	1
scalar Network600.node530 	number_of_messages 	192
scalar Network600.node530 	discovery_latency 	3930
scalar Network600.node530 	number_of_desired_resources 	20
scalar Network600.node530 	query_homogenity_rate 	33.333333333333
scalar Network600.node530 	qrecord_time 	8620
scalar Network600.node530 	discovery_resolution_rate 	83.333333333333
scalar Network600.node310 	rate_of_requesters 	1
scalar Network600.node310 	number_of_resources 	33000
scalar Network600.node310 	time_period 	1
scalar Network600.node310 	number_of_messages 	8
scalar Network600.node310 	discovery_latency 	3900
scalar Network600.node310 	number_of_desired_resources 	20
scalar Network600.node310 	query_homogenity_rate 	33.333333333333
scalar Network600.node310 	qrecord_time 	8626
scalar Network600.node310 	discovery_resolution_rate 	33.333333333333
scalar Network600.node410 	rate_of_requesters 	1
scalar Network600.node410 	number_of_resources 	33000
scalar Network600.node410 	time_period 	1
scalar Network600.node410 	number_of_messages 	10
scalar Network600.node410 	discovery_latency 	3870
scalar Network600.node410 	number_of_desired_resources 	20
scalar Network600.node410 	query_homogenity_rate 	33.333333333333
scalar Network600.node410 	qrecord_time 	8626
scalar Network600.node410 	discovery_resolution_rate 	33.333333333333
scalar Network600.node100 	rate_of_requesters 	1
scalar Network600.node100 	number_of_resources 	33000
scalar Network600.node100 	time_period 	1
scalar Network600.node100 	number_of_messages 	15
scalar Network600.node100 	discovery_latency 	3930
scalar Network600.node100 	number_of_desired_resources 	20
scalar Network600.node100 	query_homogenity_rate 	33.333333333333
scalar Network600.node100 	qrecord_time 	8644
scalar Network600.node100 	discovery_resolution_rate 	66.666666666667
scalar Network600.node250 	rate_of_requesters 	1
scalar Network600.node250 	number_of_resources 	33000
scalar Network600.node250 	time_period 	1
scalar Network600.node250 	number_of_messages 	12
scalar Network600.node250 	discovery_latency 	3900
scalar Network600.node250 	number_of_desired_resources 	20
scalar Network600.node250 	query_homogenity_rate 	33.333333333333
scalar Network600.node250 	qrecord_time 	8656
scalar Network600.node250 	discovery_resolution_rate 	33.333333333333
scalar Network600.node20 	rate_of_requesters 	1
scalar Network600.node20 	number_of_resources 	33000
scalar Network600.node20 	time_period 	1
scalar Network600.node20 	number_of_messages 	2
scalar Network600.node20 	discovery_latency 	3936
scalar Network600.node20 	number_of_desired_resources 	20
scalar Network600.node20 	query_homogenity_rate 	33.333333333333
scalar Network600.node20 	qrecord_time 	8668
scalar Network600.node20 	discovery_resolution_rate 	0
scalar Network600.node350 	rate_of_requesters 	1
scalar Network600.node350 	number_of_resources 	33000
scalar Network600.node350 	time_period 	1
scalar Network600.node350 	number_of_messages 	93
scalar Network600.node350 	discovery_latency 	3930
scalar Network600.node350 	number_of_desired_resources 	20
scalar Network600.node350 	query_homogenity_rate 	33.333333333333
scalar Network600.node350 	qrecord_time 	8674
scalar Network600.node350 	discovery_resolution_rate 	33.333333333333
scalar Network600.node510 	rate_of_requesters 	1
scalar Network600.node510 	number_of_resources 	33000
scalar Network600.node510 	time_period 	1
scalar Network600.node510 	number_of_messages 	2
scalar Network600.node510 	discovery_latency 	3942
scalar Network600.node510 	number_of_desired_resources 	20
scalar Network600.node510 	query_homogenity_rate 	33.333333333333
scalar Network600.node510 	qrecord_time 	8680
scalar Network600.node510 	discovery_resolution_rate 	0
scalar Network600.node190 	rate_of_requesters 	1
scalar Network600.node190 	number_of_resources 	33000
scalar Network600.node190 	time_period 	1
scalar Network600.node190 	number_of_messages 	5
scalar Network600.node190 	discovery_latency 	3990
scalar Network600.node190 	number_of_desired_resources 	20
scalar Network600.node190 	query_homogenity_rate 	33.333333333333
scalar Network600.node190 	qrecord_time 	8698
scalar Network600.node190 	discovery_resolution_rate 	33.333333333333
scalar Network600.node120 	rate_of_requesters 	1
scalar Network600.node120 	number_of_resources 	33000
scalar Network600.node120 	time_period 	1
scalar Network600.node120 	number_of_messages 	2
scalar Network600.node120 	discovery_latency 	3924
scalar Network600.node120 	number_of_desired_resources 	20
scalar Network600.node120 	query_homogenity_rate 	33.333333333333
scalar Network600.node120 	qrecord_time 	8716
scalar Network600.node120 	discovery_resolution_rate 	0
scalar Network600.node200 	rate_of_requesters 	1
scalar Network600.node200 	number_of_resources 	33000
scalar Network600.node200 	time_period 	1
scalar Network600.node200 	number_of_messages 	188
scalar Network600.node200 	discovery_latency 	3960
scalar Network600.node200 	number_of_desired_resources 	20
scalar Network600.node200 	query_homogenity_rate 	33.333333333333
scalar Network600.node200 	qrecord_time 	8716
scalar Network600.node200 	discovery_resolution_rate 	50
scalar Network600.node460 	rate_of_requesters 	1
scalar Network600.node460 	number_of_resources 	33000
scalar Network600.node460 	time_period 	1
scalar Network600.node460 	number_of_messages 	10
scalar Network600.node460 	discovery_latency 	3954
scalar Network600.node460 	number_of_desired_resources 	20
scalar Network600.node460 	query_homogenity_rate 	33.333333333333
scalar Network600.node460 	qrecord_time 	8722
scalar Network600.node460 	discovery_resolution_rate 	33.333333333333
scalar Network600.node490 	rate_of_requesters 	1
scalar Network600.node490 	number_of_resources 	33000
scalar Network600.node490 	time_period 	1
scalar Network600.node490 	number_of_messages 	183
scalar Network600.node490 	discovery_latency 	4014
scalar Network600.node490 	number_of_desired_resources 	20
scalar Network600.node490 	query_homogenity_rate 	33.333333333333
scalar Network600.node490 	qrecord_time 	8722
scalar Network600.node490 	discovery_resolution_rate 	16.666666666667
scalar Network600.node520 	rate_of_requesters 	1
scalar Network600.node520 	number_of_resources 	33000
scalar Network600.node520 	time_period 	1
scalar Network600.node520 	number_of_messages 	2
scalar Network600.node520 	discovery_latency 	3996
scalar Network600.node520 	number_of_desired_resources 	20
scalar Network600.node520 	query_homogenity_rate 	33.333333333333
scalar Network600.node520 	qrecord_time 	8728
scalar Network600.node520 	discovery_resolution_rate 	0
scalar Network600.node280 	rate_of_requesters 	1
scalar Network600.node280 	number_of_resources 	33000
scalar Network600.node280 	time_period 	1
scalar Network600.node280 	number_of_messages 	2
scalar Network600.node280 	discovery_latency 	3972
scalar Network600.node280 	number_of_desired_resources 	20
scalar Network600.node280 	query_homogenity_rate 	33.333333333333
scalar Network600.node280 	qrecord_time 	8728
scalar Network600.node280 	discovery_resolution_rate 	0
scalar Network600.node160 	rate_of_requesters 	1
scalar Network600.node160 	number_of_resources 	33000
scalar Network600.node160 	time_period 	1
scalar Network600.node160 	number_of_messages 	2
scalar Network600.node160 	discovery_latency 	3948
scalar Network600.node160 	number_of_desired_resources 	20
scalar Network600.node160 	query_homogenity_rate 	33.333333333333
scalar Network600.node160 	qrecord_time 	8740
scalar Network600.node160 	discovery_resolution_rate 	0
scalar Network600.node60 	rate_of_requesters 	1
scalar Network600.node60 	number_of_resources 	33000
scalar Network600.node60 	time_period 	1
scalar Network600.node60 	number_of_messages 	6
scalar Network600.node60 	discovery_latency 	3990
scalar Network600.node60 	number_of_desired_resources 	20
scalar Network600.node60 	query_homogenity_rate 	33.333333333333
scalar Network600.node60 	qrecord_time 	8740
scalar Network600.node60 	discovery_resolution_rate 	33.333333333333
scalar Network600.node270 	rate_of_requesters 	1
scalar Network600.node270 	number_of_resources 	33000
scalar Network600.node270 	time_period 	1
scalar Network600.node270 	number_of_messages 	0
scalar Network600.node270 	discovery_latency 	4020
scalar Network600.node270 	number_of_desired_resources 	20
scalar Network600.node270 	query_homogenity_rate 	33.333333333333
scalar Network600.node270 	qrecord_time 	8740
scalar Network600.node270 	discovery_resolution_rate 	0
scalar Network600.node540 	rate_of_requesters 	1
scalar Network600.node540 	number_of_resources 	33000
scalar Network600.node540 	time_period 	1
scalar Network600.node540 	number_of_messages 	0
scalar Network600.node540 	discovery_latency 	4020
scalar Network600.node540 	number_of_desired_resources 	20
scalar Network600.node540 	query_homogenity_rate 	33.333333333333
scalar Network600.node540 	qrecord_time 	8740
scalar Network600.node540 	discovery_resolution_rate 	0
scalar Network600.node420 	rate_of_requesters 	1
scalar Network600.node420 	number_of_resources 	33000
scalar Network600.node420 	time_period 	1
scalar Network600.node420 	number_of_messages 	2
scalar Network600.node420 	discovery_latency 	4056
scalar Network600.node420 	number_of_desired_resources 	20
scalar Network600.node420 	query_homogenity_rate 	33.333333333333
scalar Network600.node420 	qrecord_time 	8746
scalar Network600.node420 	discovery_resolution_rate 	0
scalar Network600.node450 	rate_of_requesters 	1
scalar Network600.node450 	number_of_resources 	33000
scalar Network600.node450 	time_period 	1
scalar Network600.node450 	number_of_messages 	16
scalar Network600.node450 	discovery_latency 	3978
scalar Network600.node450 	number_of_desired_resources 	20
scalar Network600.node450 	query_homogenity_rate 	33.333333333333
scalar Network600.node450 	qrecord_time 	8746
scalar Network600.node450 	discovery_resolution_rate 	33.333333333333
scalar Network600.node130 	rate_of_requesters 	1
scalar Network600.node130 	number_of_resources 	33000
scalar Network600.node130 	time_period 	1
scalar Network600.node130 	number_of_messages 	5
scalar Network600.node130 	discovery_latency 	4020
scalar Network600.node130 	number_of_desired_resources 	20
scalar Network600.node130 	query_homogenity_rate 	33.333333333333
scalar Network600.node130 	qrecord_time 	8752
scalar Network600.node130 	discovery_resolution_rate 	33.333333333333
scalar Network600.node180 	rate_of_requesters 	1
scalar Network600.node180 	number_of_resources 	33000
scalar Network600.node180 	time_period 	1
scalar Network600.node180 	number_of_messages 	197
scalar Network600.node180 	discovery_latency 	4050
scalar Network600.node180 	number_of_desired_resources 	20
scalar Network600.node180 	query_homogenity_rate 	33.333333333333
scalar Network600.node180 	qrecord_time 	8758
scalar Network600.node180 	discovery_resolution_rate 	50
scalar Network600.node220 	rate_of_requesters 	1
scalar Network600.node220 	number_of_resources 	33000
scalar Network600.node220 	time_period 	1
scalar Network600.node220 	number_of_messages 	6
scalar Network600.node220 	discovery_latency 	3972
scalar Network600.node220 	number_of_desired_resources 	20
scalar Network600.node220 	query_homogenity_rate 	33.333333333333
scalar Network600.node220 	qrecord_time 	8770
scalar Network600.node220 	discovery_resolution_rate 	33.333333333333
scalar Network600.node390 	rate_of_requesters 	1
scalar Network600.node390 	number_of_resources 	33000
scalar Network600.node390 	time_period 	1
scalar Network600.node390 	number_of_messages 	8
scalar Network600.node390 	discovery_latency 	4038
scalar Network600.node390 	number_of_desired_resources 	20
scalar Network600.node390 	query_homogenity_rate 	33.333333333333
scalar Network600.node390 	qrecord_time 	8776
scalar Network600.node390 	discovery_resolution_rate 	33.333333333333
scalar Network600.node10 	rate_of_requesters 	1
scalar Network600.node10 	number_of_resources 	33000
scalar Network600.node10 	time_period 	2
scalar Network600.node10 	number_of_messages 	8
scalar Network600.node10 	discovery_latency 	4044
scalar Network600.node10 	number_of_desired_resources 	20
scalar Network600.node10 	query_homogenity_rate 	33.333333333333
scalar Network600.node10 	qrecord_time 	8796.362055329
scalar Network600.node10 	discovery_resolution_rate 	33.333333333333
scalar Network600.node110 	rate_of_requesters 	1
scalar Network600.node110 	number_of_resources 	33000
scalar Network600.node110 	time_period 	1
scalar Network600.node110 	number_of_messages 	3
scalar Network600.node110 	discovery_latency 	4080
scalar Network600.node110 	number_of_desired_resources 	20
scalar Network600.node110 	query_homogenity_rate 	33.333333333333
scalar Network600.node110 	qrecord_time 	8800
scalar Network600.node110 	discovery_resolution_rate 	33.333333333333
scalar Network600.node240 	rate_of_requesters 	1
scalar Network600.node240 	number_of_resources 	33000
scalar Network600.node240 	time_period 	1
scalar Network600.node240 	number_of_messages 	163
scalar Network600.node240 	discovery_latency 	4068
scalar Network600.node240 	number_of_desired_resources 	20
scalar Network600.node240 	query_homogenity_rate 	33.333333333333
scalar Network600.node240 	qrecord_time 	8806
scalar Network600.node240 	discovery_resolution_rate 	50
scalar Network600.node300 	rate_of_requesters 	1
scalar Network600.node300 	number_of_resources 	33000
scalar Network600.node300 	time_period 	1
scalar Network600.node300 	number_of_messages 	30
scalar Network600.node300 	discovery_latency 	4110
scalar Network600.node300 	number_of_desired_resources 	20
scalar Network600.node300 	query_homogenity_rate 	33.333333333333
scalar Network600.node300 	qrecord_time 	8818
scalar Network600.node300 	discovery_resolution_rate 	66.666666666667
scalar Network600.node50 	rate_of_requesters 	1
scalar Network600.node50 	number_of_resources 	33000
scalar Network600.node50 	time_period 	1
scalar Network600.node50 	number_of_messages 	188
scalar Network600.node50 	discovery_latency 	4110
scalar Network600.node50 	number_of_desired_resources 	20
scalar Network600.node50 	query_homogenity_rate 	33.333333333333
scalar Network600.node50 	qrecord_time 	8818
scalar Network600.node50 	discovery_resolution_rate 	50
scalar Network600.node380 	rate_of_requesters 	1
scalar Network600.node380 	number_of_resources 	33000
scalar Network600.node380 	time_period 	1
scalar Network600.node380 	number_of_messages 	2
scalar Network600.node380 	discovery_latency 	4056
scalar Network600.node380 	number_of_desired_resources 	20
scalar Network600.node380 	query_homogenity_rate 	33.333333333333
scalar Network600.node380 	qrecord_time 	8830
scalar Network600.node380 	discovery_resolution_rate 	0
scalar Network600.node140 	rate_of_requesters 	1
scalar Network600.node140 	number_of_resources 	33000
scalar Network600.node140 	time_period 	1
scalar Network600.node140 	number_of_messages 	184
scalar Network600.node140 	discovery_latency 	4098
scalar Network600.node140 	number_of_desired_resources 	20
scalar Network600.node140 	query_homogenity_rate 	33.333333333333
scalar Network600.node140 	qrecord_time 	8854
scalar Network600.node140 	discovery_resolution_rate 	16.666666666667
scalar Network600.node260 	rate_of_requesters 	1
scalar Network600.node260 	number_of_resources 	33000
scalar Network600.node260 	time_period 	1
scalar Network600.node260 	number_of_messages 	9
scalar Network600.node260 	discovery_latency 	4110
scalar Network600.node260 	number_of_desired_resources 	20
scalar Network600.node260 	query_homogenity_rate 	33.333333333333
scalar Network600.node260 	qrecord_time 	8866
scalar Network600.node260 	discovery_resolution_rate 	33.333333333333
scalar Network600.node230 	rate_of_requesters 	1
scalar Network600.node230 	number_of_resources 	33000
scalar Network600.node230 	time_period 	1
scalar Network600.node230 	number_of_messages 	151
scalar Network600.node230 	discovery_latency 	4104
scalar Network600.node230 	number_of_desired_resources 	20
scalar Network600.node230 	query_homogenity_rate 	33.333333333333
scalar Network600.node230 	qrecord_time 	8872
scalar Network600.node230 	discovery_resolution_rate 	16.666666666667
scalar Network600.node340 	rate_of_requesters 	1
scalar Network600.node340 	number_of_resources 	33000
scalar Network600.node340 	time_period 	1
scalar Network600.node340 	number_of_messages 	6
scalar Network600.node340 	discovery_latency 	4062
scalar Network600.node340 	number_of_desired_resources 	20
scalar Network600.node340 	query_homogenity_rate 	33.333333333333
scalar Network600.node340 	qrecord_time 	8872
scalar Network600.node340 	discovery_resolution_rate 	33.333333333333
scalar Network600.node480 	rate_of_requesters 	1
scalar Network600.node480 	number_of_resources 	33000
scalar Network600.node480 	time_period 	1
scalar Network600.node480 	number_of_messages 	8
scalar Network600.node480 	discovery_latency 	4116
scalar Network600.node480 	number_of_desired_resources 	20
scalar Network600.node480 	query_homogenity_rate 	33.333333333333
scalar Network600.node480 	qrecord_time 	8884
scalar Network600.node480 	discovery_resolution_rate 	33.333333333333
scalar Network600.node590 	rate_of_requesters 	1
scalar Network600.node590 	number_of_resources 	33000
scalar Network600.node590 	time_period 	1
scalar Network600.node590 	number_of_messages 	183
scalar Network600.node590 	discovery_latency 	4176
scalar Network600.node590 	number_of_desired_resources 	20
scalar Network600.node590 	query_homogenity_rate 	33.333333333333
scalar Network600.node590 	qrecord_time 	8926
scalar Network600.node590 	discovery_resolution_rate 	16.666666666667
scalar Network600.node590 	rate_of_requesters 	1
scalar Network600.node590 	number_of_resources 	33000
scalar Network600.node590 	time_period 	2
scalar Network600.node590 	number_of_messages 	2
scalar Network600.node590 	discovery_latency 	4086
scalar Network600.node590 	number_of_desired_resources 	20
scalar Network600.node590 	query_homogenity_rate 	33.333333333333
scalar Network600.node590 	qrecord_time 	9026.314933297
scalar Network600.node590 	discovery_resolution_rate 	0
scalar Network600.node490 	rate_of_requesters 	1
scalar Network600.node490 	number_of_resources 	33000
scalar Network600.node490 	time_period 	2
scalar Network600.node490 	number_of_messages 	2
scalar Network600.node490 	discovery_latency 	4068
scalar Network600.node490 	number_of_desired_resources 	20
scalar Network600.node490 	query_homogenity_rate 	33.333333333333
scalar Network600.node490 	qrecord_time 	9027.034381584
scalar Network600.node490 	discovery_resolution_rate 	0
scalar Network600.node570 	rate_of_requesters 	1
scalar Network600.node570 	number_of_resources 	33000
scalar Network600.node570 	time_period 	2
scalar Network600.node570 	number_of_messages 	2
scalar Network600.node570 	discovery_latency 	4134
scalar Network600.node570 	number_of_desired_resources 	20
scalar Network600.node570 	query_homogenity_rate 	33.333333333333
scalar Network600.node570 	qrecord_time 	9281.749497739
scalar Network600.node570 	discovery_resolution_rate 	0
scalar Network600.node440 	rate_of_requesters 	1
scalar Network600.node440 	number_of_resources 	33000
scalar Network600.node440 	time_period 	2
scalar Network600.node440 	number_of_messages 	2
scalar Network600.node440 	discovery_latency 	3966
scalar Network600.node440 	number_of_desired_resources 	20
scalar Network600.node440 	query_homogenity_rate 	33.333333333333
scalar Network600.node440 	qrecord_time 	9297.627082058
scalar Network600.node440 	discovery_resolution_rate 	0
scalar Network600.node490 	rate_of_requesters 	1
scalar Network600.node490 	number_of_resources 	33000
scalar Network600.node490 	time_period 	3
scalar Network600.node490 	number_of_messages 	2
scalar Network600.node490 	discovery_latency 	4170
scalar Network600.node490 	number_of_desired_resources 	20
scalar Network600.node490 	query_homogenity_rate 	33.333333333333
scalar Network600.node490 	qrecord_time 	9350.434329237
scalar Network600.node490 	discovery_resolution_rate 	0
scalar Network600.node230 	rate_of_requesters 	1
scalar Network600.node230 	number_of_resources 	33000
scalar Network600.node230 	time_period 	2
scalar Network600.node230 	number_of_messages 	2
scalar Network600.node230 	discovery_latency 	3960
scalar Network600.node230 	number_of_desired_resources 	20
scalar Network600.node230 	query_homogenity_rate 	33.333333333333
scalar Network600.node230 	qrecord_time 	9382.811622555
scalar Network600.node230 	discovery_resolution_rate 	0
scalar Network600.node170 	rate_of_requesters 	1
scalar Network600.node170 	number_of_resources 	33000
scalar Network600.node170 	time_period 	2
scalar Network600.node170 	number_of_messages 	46
scalar Network600.node170 	discovery_latency 	3918
scalar Network600.node170 	number_of_desired_resources 	20
scalar Network600.node170 	query_homogenity_rate 	33.333333333333
scalar Network600.node170 	qrecord_time 	9387.838418099
scalar Network600.node170 	discovery_resolution_rate 	33.333333333333
scalar Network600.node590 	rate_of_requesters 	1
scalar Network600.node590 	number_of_resources 	33000
scalar Network600.node590 	time_period 	3
scalar Network600.node590 	number_of_messages 	2
scalar Network600.node590 	discovery_latency 	3942
scalar Network600.node590 	number_of_desired_resources 	20
scalar Network600.node590 	query_homogenity_rate 	33.333333333333
scalar Network600.node590 	qrecord_time 	9412.656373848
scalar Network600.node590 	discovery_resolution_rate 	0
scalar Network600.node430 	rate_of_requesters 	1
scalar Network600.node430 	number_of_resources 	33000
scalar Network600.node430 	time_period 	2
scalar Network600.node430 	number_of_messages 	0
scalar Network600.node430 	discovery_latency 	4086
scalar Network600.node430 	number_of_desired_resources 	20
scalar Network600.node430 	query_homogenity_rate 	33.333333333333
scalar Network600.node430 	qrecord_time 	9472.012966681
scalar Network600.node430 	discovery_resolution_rate 	0
scalar Network600.node460 	rate_of_requesters 	1
scalar Network600.node460 	number_of_resources 	33000
scalar Network600.node460 	time_period 	2
scalar Network600.node460 	number_of_messages 	2
scalar Network600.node460 	discovery_latency 	4074
scalar Network600.node460 	number_of_desired_resources 	20
scalar Network600.node460 	query_homogenity_rate 	33.333333333333
scalar Network600.node460 	qrecord_time 	9478.725603002
scalar Network600.node460 	discovery_resolution_rate 	0
scalar Network600.node160 	rate_of_requesters 	1
scalar Network600.node160 	number_of_resources 	33000
scalar Network600.node160 	time_period 	2
scalar Network600.node160 	number_of_messages 	2
scalar Network600.node160 	discovery_latency 	4050
scalar Network600.node160 	number_of_desired_resources 	20
scalar Network600.node160 	query_homogenity_rate 	33.333333333333
scalar Network600.node160 	qrecord_time 	9527.465323548
scalar Network600.node160 	discovery_resolution_rate 	0
scalar Network600.node300 	rate_of_requesters 	1
scalar Network600.node300 	number_of_resources 	33000
scalar Network600.node300 	time_period 	2
scalar Network600.node300 	number_of_messages 	2
scalar Network600.node300 	discovery_latency 	4002
scalar Network600.node300 	number_of_desired_resources 	20
scalar Network600.node300 	query_homogenity_rate 	33.333333333333
scalar Network600.node300 	qrecord_time 	9919.250391518
scalar Network600.node300 	discovery_resolution_rate 	0
scalar Network600.node550 	rate_of_requesters 	1
scalar Network600.node550 	number_of_resources 	33000
scalar Network600.node550 	time_period 	2
scalar Network600.node550 	number_of_messages 	0
scalar Network600.node550 	discovery_latency 	4020
scalar Network600.node550 	number_of_desired_resources 	20
scalar Network600.node550 	query_homogenity_rate 	33.333333333333
scalar Network600.node550 	qrecord_time 	10029.716571237
scalar Network600.node550 	discovery_resolution_rate 	0
scalar Network600.node220 	rate_of_requesters 	1
scalar Network600.node220 	number_of_resources 	33000
scalar Network600.node220 	time_period 	2
scalar Network600.node220 	number_of_messages 	2
scalar Network600.node220 	discovery_latency 	3936
scalar Network600.node220 	number_of_desired_resources 	20
scalar Network600.node220 	query_homogenity_rate 	33.333333333333
scalar Network600.node220 	qrecord_time 	10268.806856557
scalar Network600.node220 	discovery_resolution_rate 	0
scalar Network600.node540 	rate_of_requesters 	1
scalar Network600.node540 	number_of_resources 	33000
scalar Network600.node540 	time_period 	2
scalar Network600.node540 	number_of_messages 	0
scalar Network600.node540 	discovery_latency 	3936
scalar Network600.node540 	number_of_desired_resources 	20
scalar Network600.node540 	query_homogenity_rate 	33.333333333333
scalar Network600.node540 	qrecord_time 	10273.547835348
scalar Network600.node540 	discovery_resolution_rate 	0
scalar Network600.node80 	rate_of_requesters 	1
scalar Network600.node80 	number_of_resources 	33000
scalar Network600.node80 	time_period 	2
scalar Network600.node80 	number_of_messages 	2
scalar Network600.node80 	discovery_latency 	4140
scalar Network600.node80 	number_of_desired_resources 	20
scalar Network600.node80 	query_homogenity_rate 	33.333333333333
scalar Network600.node80 	qrecord_time 	10312.359503256
scalar Network600.node80 	discovery_resolution_rate 	0
scalar Network600.node180 	rate_of_requesters 	1
scalar Network600.node180 	number_of_resources 	33000
scalar Network600.node180 	time_period 	2
scalar Network600.node180 	number_of_messages 	2
scalar Network600.node180 	discovery_latency 	4074
scalar Network600.node180 	number_of_desired_resources 	20
scalar Network600.node180 	query_homogenity_rate 	33.333333333333
scalar Network600.node180 	qrecord_time 	10391.1192734
scalar Network600.node180 	discovery_resolution_rate 	0
scalar Network600.node90 	rate_of_requesters 	1
scalar Network600.node90 	number_of_resources 	33000
scalar Network600.node90 	time_period 	2
scalar Network600.node90 	number_of_messages 	2
scalar Network600.node90 	discovery_latency 	3996
scalar Network600.node90 	number_of_desired_resources 	20
scalar Network600.node90 	query_homogenity_rate 	33.333333333333
scalar Network600.node90 	qrecord_time 	10533.277686028
scalar Network600.node90 	discovery_resolution_rate 	0
scalar Network600.node10 	rate_of_requesters 	1
scalar Network600.node10 	number_of_resources 	33000
scalar Network600.node10 	time_period 	3
scalar Network600.node10 	number_of_messages 	2
scalar Network600.node10 	discovery_latency 	4062
scalar Network600.node10 	number_of_desired_resources 	20
scalar Network600.node10 	query_homogenity_rate 	33.333333333333
scalar Network600.node10 	qrecord_time 	10629.235338808
scalar Network600.node10 	discovery_resolution_rate 	0
scalar Network600.node400 	rate_of_requesters 	1
scalar Network600.node400 	number_of_resources 	33000
scalar Network600.node400 	time_period 	2
scalar Network600.node400 	number_of_messages 	29
scalar Network600.node400 	discovery_latency 	3846
scalar Network600.node400 	number_of_desired_resources 	20
scalar Network600.node400 	query_homogenity_rate 	33.333333333333
scalar Network600.node400 	qrecord_time 	10720.345100567
scalar Network600.node400 	discovery_resolution_rate 	66.666666666667
scalar Network600.node0 	rate_of_requesters 	1
scalar Network600.node0 	number_of_resources 	33000
scalar Network600.node0 	time_period 	2
scalar Network600.node0 	number_of_messages 	2
scalar Network600.node0 	discovery_latency 	3972
scalar Network600.node0 	number_of_desired_resources 	20
scalar Network600.node0 	query_homogenity_rate 	33.333333333333
scalar Network600.node0 	qrecord_time 	10802.265539671
scalar Network600.node0 	discovery_resolution_rate 	0
scalar Network600.node510 	rate_of_requesters 	1
scalar Network600.node510 	number_of_resources 	33000
scalar Network600.node510 	time_period 	2
scalar Network600.node510 	number_of_messages 	10
scalar Network600.node510 	discovery_latency 	3936
scalar Network600.node510 	number_of_desired_resources 	20
scalar Network600.node510 	query_homogenity_rate 	33.333333333333
scalar Network600.node510 	qrecord_time 	10846.071157672
scalar Network600.node510 	discovery_resolution_rate 	33.333333333333
scalar Network600.node80 	rate_of_requesters 	1
scalar Network600.node80 	number_of_resources 	33000
scalar Network600.node80 	time_period 	3
scalar Network600.node80 	number_of_messages 	2
scalar Network600.node80 	discovery_latency 	3966
scalar Network600.node80 	number_of_desired_resources 	20
scalar Network600.node80 	query_homogenity_rate 	33.333333333333
scalar Network600.node80 	qrecord_time 	10851.408620509
scalar Network600.node80 	discovery_resolution_rate 	0
scalar Network600.node570 	rate_of_requesters 	1
scalar Network600.node570 	number_of_resources 	33000
scalar Network600.node570 	time_period 	3
scalar Network600.node570 	number_of_messages 	27
scalar Network600.node570 	discovery_latency 	3852
scalar Network600.node570 	number_of_desired_resources 	20
scalar Network600.node570 	query_homogenity_rate 	33.333333333333
scalar Network600.node570 	qrecord_time 	10877.999902902
scalar Network600.node570 	discovery_resolution_rate 	33.333333333333
scalar Network600.node70 	rate_of_requesters 	1
scalar Network600.node70 	number_of_resources 	33000
scalar Network600.node70 	time_period 	2
scalar Network600.node70 	number_of_messages 	2
scalar Network600.node70 	discovery_latency 	3936
scalar Network600.node70 	number_of_desired_resources 	20
scalar Network600.node70 	query_homogenity_rate 	33.333333333333
scalar Network600.node70 	qrecord_time 	10923.480319515
scalar Network600.node70 	discovery_resolution_rate 	0
scalar Network600.node500 	rate_of_requesters 	1
scalar Network600.node500 	number_of_resources 	33000
scalar Network600.node500 	time_period 	2
scalar Network600.node500 	number_of_messages 	52
scalar Network600.node500 	discovery_latency 	3906
scalar Network600.node500 	number_of_desired_resources 	20
scalar Network600.node500 	query_homogenity_rate 	33.333333333333
scalar Network600.node500 	qrecord_time 	11029.003598844
scalar Network600.node500 	discovery_resolution_rate 	33.333333333333
scalar Network600.node20 	rate_of_requesters 	1
scalar Network600.node20 	number_of_resources 	33000
scalar Network600.node20 	time_period 	2
scalar Network600.node20 	number_of_messages 	30
scalar Network600.node20 	discovery_latency 	4056
scalar Network600.node20 	number_of_desired_resources 	20
scalar Network600.node20 	query_homogenity_rate 	33.333333333333
scalar Network600.node20 	qrecord_time 	11084.948836648
scalar Network600.node20 	discovery_resolution_rate 	33.333333333333
scalar Network600.node90 	rate_of_requesters 	1
scalar Network600.node90 	number_of_resources 	33000
scalar Network600.node90 	time_period 	3
scalar Network600.node90 	number_of_messages 	2
scalar Network600.node90 	discovery_latency 	3966
scalar Network600.node90 	number_of_desired_resources 	20
scalar Network600.node90 	query_homogenity_rate 	33.333333333333
scalar Network600.node90 	qrecord_time 	11100.423623685
scalar Network600.node90 	discovery_resolution_rate 	0
scalar Network600.node40 	rate_of_requesters 	1
scalar Network600.node40 	number_of_resources 	33000
scalar Network600.node40 	time_period 	2
scalar Network600.node40 	number_of_messages 	2
scalar Network600.node40 	discovery_latency 	3996
scalar Network600.node40 	number_of_desired_resources 	20
scalar Network600.node40 	query_homogenity_rate 	33.333333333333
scalar Network600.node40 	qrecord_time 	11172.290017325
scalar Network600.node40 	discovery_resolution_rate 	0
scalar Network600.node490 	rate_of_requesters 	1
scalar Network600.node490 	number_of_resources 	33000
scalar Network600.node490 	time_period 	4
scalar Network600.node490 	number_of_messages 	2
scalar Network600.node490 	discovery_latency 	3924
scalar Network600.node490 	number_of_desired_resources 	20
scalar Network600.node490 	query_homogenity_rate 	33.333333333333
scalar Network600.node490 	qrecord_time 	11186.651185768
scalar Network600.node490 	discovery_resolution_rate 	0
scalar Network600.node440 	rate_of_requesters 	1
scalar Network600.node440 	number_of_resources 	33000
scalar Network600.node440 	time_period 	3
scalar Network600.node440 	number_of_messages 	6
scalar Network600.node440 	discovery_latency 	3894
scalar Network600.node440 	number_of_desired_resources 	20
scalar Network600.node440 	query_homogenity_rate 	33.333333333333
scalar Network600.node440 	qrecord_time 	11268.937430041
scalar Network600.node440 	discovery_resolution_rate 	33.333333333333
scalar Network600.node60 	rate_of_requesters 	1
scalar Network600.node60 	number_of_resources 	33000
scalar Network600.node60 	time_period 	2
scalar Network600.node60 	number_of_messages 	2
scalar Network600.node60 	discovery_latency 	4008
scalar Network600.node60 	number_of_desired_resources 	20
scalar Network600.node60 	query_homogenity_rate 	33.333333333333
scalar Network600.node60 	qrecord_time 	11396.295391395
scalar Network600.node60 	discovery_resolution_rate 	0
scalar Network600.node0 	rate_of_requesters 	1
scalar Network600.node0 	number_of_resources 	33000
scalar Network600.node0 	time_period 	3
scalar Network600.node0 	number_of_messages 	2
scalar Network600.node0 	discovery_latency 	3918
scalar Network600.node0 	number_of_desired_resources 	20
scalar Network600.node0 	query_homogenity_rate 	33.333333333333
scalar Network600.node0 	qrecord_time 	11482.089510412
scalar Network600.node0 	discovery_resolution_rate 	0
scalar Network600.node180 	rate_of_requesters 	1
scalar Network600.node180 	number_of_resources 	33000
scalar Network600.node180 	time_period 	3
scalar Network600.node180 	number_of_messages 	44
scalar Network600.node180 	discovery_latency 	3348
scalar Network600.node180 	number_of_desired_resources 	20
scalar Network600.node180 	query_homogenity_rate 	33.333333333333
scalar Network600.node180 	qrecord_time 	11606.046399496
scalar Network600.node180 	discovery_resolution_rate 	66.666666666667
scalar Network600.node90 	rate_of_requesters 	1
scalar Network600.node90 	number_of_resources 	33000
scalar Network600.node90 	time_period 	4
scalar Network600.node90 	number_of_messages 	9
scalar Network600.node90 	discovery_latency 	3936
scalar Network600.node90 	number_of_desired_resources 	20
scalar Network600.node90 	query_homogenity_rate 	33.333333333333
scalar Network600.node90 	qrecord_time 	11612.334279957
scalar Network600.node90 	discovery_resolution_rate 	33.333333333333
scalar Network600.node230 	rate_of_requesters 	1
scalar Network600.node230 	number_of_resources 	33000
scalar Network600.node230 	time_period 	3
scalar Network600.node230 	number_of_messages 	7
scalar Network600.node230 	discovery_latency 	3936
scalar Network600.node230 	number_of_desired_resources 	20
scalar Network600.node230 	query_homogenity_rate 	33.333333333333
scalar Network600.node230 	qrecord_time 	11638.173798031
scalar Network600.node230 	discovery_resolution_rate 	33.333333333333
scalar Network600.node440 	rate_of_requesters 	1
scalar Network600.node440 	number_of_resources 	33000
scalar Network600.node440 	time_period 	4
scalar Network600.node440 	number_of_messages 	19
scalar Network600.node440 	discovery_latency 	3726
scalar Network600.node440 	number_of_desired_resources 	20
scalar Network600.node440 	query_homogenity_rate 	33.333333333333
scalar Network600.node440 	qrecord_time 	11643.405511845
scalar Network600.node440 	discovery_resolution_rate 	33.333333333333
scalar Network600.node50 	rate_of_requesters 	1
scalar Network600.node50 	number_of_resources 	33000
scalar Network600.node50 	time_period 	2
scalar Network600.node50 	number_of_messages 	2
scalar Network600.node50 	discovery_latency 	3948
scalar Network600.node50 	number_of_desired_resources 	20
scalar Network600.node50 	query_homogenity_rate 	33.333333333333
scalar Network600.node50 	qrecord_time 	11733.748775616
scalar Network600.node50 	discovery_resolution_rate 	0
scalar Network600.node150 	rate_of_requesters 	1
scalar Network600.node150 	number_of_resources 	33000
scalar Network600.node150 	time_period 	2
scalar Network600.node150 	number_of_messages 	32
scalar Network600.node150 	discovery_latency 	3834
scalar Network600.node150 	number_of_desired_resources 	20
scalar Network600.node150 	query_homogenity_rate 	33.333333333333
scalar Network600.node150 	qrecord_time 	11734.8383656
scalar Network600.node150 	discovery_resolution_rate 	33.333333333333
scalar Network600.node160 	rate_of_requesters 	1
scalar Network600.node160 	number_of_resources 	33000
scalar Network600.node160 	time_period 	3
scalar Network600.node160 	number_of_messages 	183
scalar Network600.node160 	discovery_latency 	3966
scalar Network600.node160 	number_of_desired_resources 	20
scalar Network600.node160 	query_homogenity_rate 	33.333333333333
scalar Network600.node160 	qrecord_time 	11761.750574268
scalar Network600.node160 	discovery_resolution_rate 	16.666666666667
scalar Network600.node130 	rate_of_requesters 	1
scalar Network600.node130 	number_of_resources 	33000
scalar Network600.node130 	time_period 	2
scalar Network600.node130 	number_of_messages 	2
scalar Network600.node130 	discovery_latency 	4074
scalar Network600.node130 	number_of_desired_resources 	20
scalar Network600.node130 	query_homogenity_rate 	33.333333333333
scalar Network600.node130 	qrecord_time 	11782.139777959
scalar Network600.node130 	discovery_resolution_rate 	0
scalar Network600.node230 	rate_of_requesters 	1
scalar Network600.node230 	number_of_resources 	33000
scalar Network600.node230 	time_period 	4
scalar Network600.node230 	number_of_messages 	2
scalar Network600.node230 	discovery_latency 	3924
scalar Network600.node230 	number_of_desired_resources 	20
scalar Network600.node230 	query_homogenity_rate 	33.333333333333
scalar Network600.node230 	qrecord_time 	11919.09339518
scalar Network600.node230 	discovery_resolution_rate 	0
scalar Network600.node380 	rate_of_requesters 	1
scalar Network600.node380 	number_of_resources 	33000
scalar Network600.node380 	time_period 	2
scalar Network600.node380 	number_of_messages 	2
scalar Network600.node380 	discovery_latency 	4020
scalar Network600.node380 	number_of_desired_resources 	20
scalar Network600.node380 	query_homogenity_rate 	33.333333333333
scalar Network600.node380 	qrecord_time 	12005.264253915
scalar Network600.node380 	discovery_resolution_rate 	0
scalar Network600.node220 	rate_of_requesters 	1
scalar Network600.node220 	number_of_resources 	33000
scalar Network600.node220 	time_period 	3
scalar Network600.node220 	number_of_messages 	8
scalar Network600.node220 	discovery_latency 	3810
scalar Network600.node220 	number_of_desired_resources 	20
scalar Network600.node220 	query_homogenity_rate 	33.333333333333
scalar Network600.node220 	qrecord_time 	12025.518942363
scalar Network600.node220 	discovery_resolution_rate 	33.333333333333
scalar Network600.node560 	rate_of_requesters 	1
scalar Network600.node560 	number_of_resources 	33000
scalar Network600.node560 	time_period 	2
scalar Network600.node560 	number_of_messages 	20
scalar Network600.node560 	discovery_latency 	3912
scalar Network600.node560 	number_of_desired_resources 	20
scalar Network600.node560 	query_homogenity_rate 	33.333333333333
scalar Network600.node560 	qrecord_time 	12103.265545131
scalar Network600.node560 	discovery_resolution_rate 	66.666666666667
scalar Network600.node50 	rate_of_requesters 	1
scalar Network600.node50 	number_of_resources 	33000
scalar Network600.node50 	time_period 	3
scalar Network600.node50 	number_of_messages 	2
scalar Network600.node50 	discovery_latency 	4020
scalar Network600.node50 	number_of_desired_resources 	20
scalar Network600.node50 	query_homogenity_rate 	33.333333333333
scalar Network600.node50 	qrecord_time 	12238.252838125
scalar Network600.node50 	discovery_resolution_rate 	0
scalar Network600.node190 	rate_of_requesters 	1
scalar Network600.node190 	number_of_resources 	33000
scalar Network600.node190 	time_period 	2
scalar Network600.node190 	number_of_messages 	2
scalar Network600.node190 	discovery_latency 	4020
scalar Network600.node190 	number_of_desired_resources 	20
scalar Network600.node190 	query_homogenity_rate 	33.333333333333
scalar Network600.node190 	qrecord_time 	12258.713257355
scalar Network600.node190 	discovery_resolution_rate 	0
scalar Network600.node100 	rate_of_requesters 	1
scalar Network600.node100 	number_of_resources 	33000
scalar Network600.node100 	time_period 	3
scalar Network600.node100 	number_of_messages 	55
scalar Network600.node100 	discovery_latency 	3774
scalar Network600.node100 	number_of_desired_resources 	20
scalar Network600.node100 	query_homogenity_rate 	33.333333333333
scalar Network600.node100 	qrecord_time 	12284.459624978
scalar Network600.node100 	discovery_resolution_rate 	66.666666666667
scalar Network600.node200 	rate_of_requesters 	1
scalar Network600.node200 	number_of_resources 	33000
scalar Network600.node200 	time_period 	2
scalar Network600.node200 	number_of_messages 	45
scalar Network600.node200 	discovery_latency 	3906
scalar Network600.node200 	number_of_desired_resources 	20
scalar Network600.node200 	query_homogenity_rate 	33.333333333333
scalar Network600.node200 	qrecord_time 	12307.285107299
scalar Network600.node200 	discovery_resolution_rate 	33.333333333333
scalar Network600.node570 	rate_of_requesters 	1
scalar Network600.node570 	number_of_resources 	33000
scalar Network600.node570 	time_period 	4
scalar Network600.node570 	number_of_messages 	36
scalar Network600.node570 	discovery_latency 	3846
scalar Network600.node570 	number_of_desired_resources 	20
scalar Network600.node570 	query_homogenity_rate 	33.333333333333
scalar Network600.node570 	qrecord_time 	12330.79786631
scalar Network600.node570 	discovery_resolution_rate 	33.333333333333
scalar Network600.node100 	rate_of_requesters 	1
scalar Network600.node100 	number_of_resources 	33000
scalar Network600.node100 	time_period 	2
scalar Network600.node100 	number_of_messages 	2
scalar Network600.node100 	discovery_latency 	4032
scalar Network600.node100 	number_of_desired_resources 	20
scalar Network600.node100 	query_homogenity_rate 	33.333333333333
scalar Network600.node100 	qrecord_time 	12362.369324684
scalar Network600.node100 	discovery_resolution_rate 	0
scalar Network600.node450 	rate_of_requesters 	1
scalar Network600.node450 	number_of_resources 	33000
scalar Network600.node450 	time_period 	2
scalar Network600.node450 	number_of_messages 	224
scalar Network600.node450 	discovery_latency 	3960
scalar Network600.node450 	number_of_desired_resources 	20
scalar Network600.node450 	query_homogenity_rate 	33.333333333333
scalar Network600.node450 	qrecord_time 	12405.785462941
scalar Network600.node450 	discovery_resolution_rate 	50
scalar Network600.node400 	rate_of_requesters 	1
scalar Network600.node400 	number_of_resources 	33000
scalar Network600.node400 	time_period 	3
scalar Network600.node400 	number_of_messages 	16
scalar Network600.node400 	discovery_latency 	3480
scalar Network600.node400 	number_of_desired_resources 	20
scalar Network600.node400 	query_homogenity_rate 	33.333333333333
scalar Network600.node400 	qrecord_time 	12521.643541792
scalar Network600.node400 	discovery_resolution_rate 	66.666666666667
scalar Network600.node350 	rate_of_requesters 	1
scalar Network600.node350 	number_of_resources 	33000
scalar Network600.node350 	time_period 	2
scalar Network600.node350 	number_of_messages 	11
scalar Network600.node350 	discovery_latency 	3960
scalar Network600.node350 	number_of_desired_resources 	20
scalar Network600.node350 	query_homogenity_rate 	33.333333333333
scalar Network600.node350 	qrecord_time 	12638.549907967
scalar Network600.node350 	discovery_resolution_rate 	33.333333333333
scalar Network600.node150 	rate_of_requesters 	1
scalar Network600.node150 	number_of_resources 	33000
scalar Network600.node150 	time_period 	3
scalar Network600.node150 	number_of_messages 	19
scalar Network600.node150 	discovery_latency 	3972
scalar Network600.node150 	number_of_desired_resources 	20
scalar Network600.node150 	query_homogenity_rate 	33.333333333333
scalar Network600.node150 	qrecord_time 	12850.618859189
scalar Network600.node150 	discovery_resolution_rate 	66.666666666667
scalar Network600.node390 	rate_of_requesters 	1
scalar Network600.node390 	number_of_resources 	33000
scalar Network600.node390 	time_period 	2
scalar Network600.node390 	number_of_messages 	234
scalar Network600.node390 	discovery_latency 	4152
scalar Network600.node390 	number_of_desired_resources 	20
scalar Network600.node390 	query_homogenity_rate 	33.333333333333
scalar Network600.node390 	qrecord_time 	12990.06034339
scalar Network600.node390 	discovery_resolution_rate 	83.333333333333
scalar Network600.node530 	rate_of_requesters 	1
scalar Network600.node530 	number_of_resources 	33000
scalar Network600.node530 	time_period 	2
scalar Network600.node530 	number_of_messages 	2
scalar Network600.node530 	discovery_latency 	3876
scalar Network600.node530 	number_of_desired_resources 	20
scalar Network600.node530 	query_homogenity_rate 	33.333333333333
scalar Network600.node530 	qrecord_time 	13050.177361372
scalar Network600.node530 	discovery_resolution_rate 	0
scalar Network600.node40 	rate_of_requesters 	1
scalar Network600.node40 	number_of_resources 	33000
scalar Network600.node40 	time_period 	3
scalar Network600.node40 	number_of_messages 	2
scalar Network600.node40 	discovery_latency 	3966
scalar Network600.node40 	number_of_desired_resources 	20
scalar Network600.node40 	query_homogenity_rate 	33.333333333333
scalar Network600.node40 	qrecord_time 	13077.109421092
scalar Network600.node40 	discovery_resolution_rate 	0
scalar Network600.node530 	rate_of_requesters 	1
scalar Network600.node530 	number_of_resources 	33000
scalar Network600.node530 	time_period 	3
scalar Network600.node530 	number_of_messages 	2
scalar Network600.node530 	discovery_latency 	3816
scalar Network600.node530 	number_of_desired_resources 	20
scalar Network600.node530 	query_homogenity_rate 	33.333333333333
scalar Network600.node530 	qrecord_time 	13112.628541968
scalar Network600.node530 	discovery_resolution_rate 	0
scalar Network600.node340 	rate_of_requesters 	1
scalar Network600.node340 	number_of_resources 	33000
scalar Network600.node340 	time_period 	2
scalar Network600.node340 	number_of_messages 	2
scalar Network600.node340 	discovery_latency 	4092
scalar Network600.node340 	number_of_desired_resources 	20
scalar Network600.node340 	query_homogenity_rate 	33.333333333333
scalar Network600.node340 	qrecord_time 	13181.863590553
scalar Network600.node340 	discovery_resolution_rate 	0
scalar Network600.node490 	rate_of_requesters 	1
scalar Network600.node490 	number_of_resources 	33000
scalar Network600.node490 	time_period 	5
scalar Network600.node490 	number_of_messages 	2
scalar Network600.node490 	discovery_latency 	3840
scalar Network600.node490 	number_of_desired_resources 	20
scalar Network600.node490 	query_homogenity_rate 	33.333333333333
scalar Network600.node490 	qrecord_time 	13242.363243985
scalar Network600.node490 	discovery_resolution_rate 	0
scalar Network600.node90 	rate_of_requesters 	1
scalar Network600.node90 	number_of_resources 	33000
scalar Network600.node90 	time_period 	5
scalar Network600.node90 	number_of_messages 	20
scalar Network600.node90 	discovery_latency 	3960
scalar Network600.node90 	number_of_desired_resources 	20
scalar Network600.node90 	query_homogenity_rate 	33.333333333333
scalar Network600.node90 	qrecord_time 	13242.471947582
scalar Network600.node90 	discovery_resolution_rate 	66.666666666667
scalar Network600.node570 	rate_of_requesters 	1
scalar Network600.node570 	number_of_resources 	33000
scalar Network600.node570 	time_period 	5
scalar Network600.node570 	number_of_messages 	2
scalar Network600.node570 	discovery_latency 	3876
scalar Network600.node570 	number_of_desired_resources 	20
scalar Network600.node570 	query_homogenity_rate 	33.333333333333
scalar Network600.node570 	qrecord_time 	13308.06174872
scalar Network600.node570 	discovery_resolution_rate 	0
scalar Network600.node580 	rate_of_requesters 	1
scalar Network600.node580 	number_of_resources 	33000
scalar Network600.node580 	time_period 	2
scalar Network600.node580 	number_of_messages 	2
scalar Network600.node580 	discovery_latency 	4008
scalar Network600.node580 	number_of_desired_resources 	20
scalar Network600.node580 	query_homogenity_rate 	33.333333333333
scalar Network600.node580 	qrecord_time 	13429.57737807
scalar Network600.node580 	discovery_resolution_rate 	0
scalar Network600.node0 	rate_of_requesters 	1
scalar Network600.node0 	number_of_resources 	33000
scalar Network600.node0 	time_period 	4
scalar Network600.node0 	number_of_messages 	2
scalar Network600.node0 	discovery_latency 	3972
scalar Network600.node0 	number_of_desired_resources 	20
scalar Network600.node0 	query_homogenity_rate 	33.333333333333
scalar Network600.node0 	qrecord_time 	13435.43771026
scalar Network600.node0 	discovery_resolution_rate 	0
scalar Network600.node450 	rate_of_requesters 	1
scalar Network600.node450 	number_of_resources 	33000
scalar Network600.node450 	time_period 	3
scalar Network600.node450 	number_of_messages 	2
scalar Network600.node450 	discovery_latency 	4032
scalar Network600.node450 	number_of_desired_resources 	20
scalar Network600.node450 	query_homogenity_rate 	33.333333333333
scalar Network600.node450 	qrecord_time 	13437.623863021
scalar Network600.node450 	discovery_resolution_rate 	0
scalar Network600.node160 	rate_of_requesters 	1
scalar Network600.node160 	number_of_resources 	33000
scalar Network600.node160 	time_period 	4
scalar Network600.node160 	number_of_messages 	28
scalar Network600.node160 	discovery_latency 	216
scalar Network600.node160 	number_of_desired_resources 	20
scalar Network600.node160 	query_homogenity_rate 	33.333333333333
scalar Network600.node160 	qrecord_time 	13454.165354346
scalar Network600.node160 	discovery_resolution_rate 	100
scalar Network600.node280 	rate_of_requesters 	1
scalar Network600.node280 	number_of_resources 	33000
scalar Network600.node280 	time_period 	2
scalar Network600.node280 	number_of_messages 	32
scalar Network600.node280 	discovery_latency 	3858
scalar Network600.node280 	number_of_desired_resources 	20
scalar Network600.node280 	query_homogenity_rate 	33.333333333333
scalar Network600.node280 	qrecord_time 	13540.769397677
scalar Network600.node280 	discovery_resolution_rate 	33.333333333333
scalar Network600.node230 	rate_of_requesters 	1
scalar Network600.node230 	number_of_resources 	33000
scalar Network600.node230 	time_period 	5
scalar Network600.node230 	number_of_messages 	29
scalar Network600.node230 	discovery_latency 	3528
scalar Network600.node230 	number_of_desired_resources 	20
scalar Network600.node230 	query_homogenity_rate 	33.333333333333
scalar Network600.node230 	qrecord_time 	13701.487627877
scalar Network600.node230 	discovery_resolution_rate 	66.666666666667
scalar Network600.node450 	rate_of_requesters 	1
scalar Network600.node450 	number_of_resources 	33000
scalar Network600.node450 	time_period 	4
scalar Network600.node450 	number_of_messages 	50
scalar Network600.node450 	discovery_latency 	3540
scalar Network600.node450 	number_of_desired_resources 	20
scalar Network600.node450 	query_homogenity_rate 	33.333333333333
scalar Network600.node450 	qrecord_time 	13968.763522373
scalar Network600.node450 	discovery_resolution_rate 	66.666666666667
scalar Network600.node370 	rate_of_requesters 	1
scalar Network600.node370 	number_of_resources 	33000
scalar Network600.node370 	time_period 	2
scalar Network600.node370 	number_of_messages 	49
scalar Network600.node370 	discovery_latency 	3882
scalar Network600.node370 	number_of_desired_resources 	20
scalar Network600.node370 	query_homogenity_rate 	33.333333333333
scalar Network600.node370 	qrecord_time 	14128.002193437
scalar Network600.node370 	discovery_resolution_rate 	33.333333333333
scalar Network600.node250 	rate_of_requesters 	1
scalar Network600.node250 	number_of_resources 	33000
scalar Network600.node250 	time_period 	2
scalar Network600.node250 	number_of_messages 	213
scalar Network600.node250 	discovery_latency 	4002
scalar Network600.node250 	number_of_desired_resources 	20
scalar Network600.node250 	query_homogenity_rate 	33.333333333333
scalar Network600.node250 	qrecord_time 	14230.067575189
scalar Network600.node250 	discovery_resolution_rate 	50
scalar Network600.node10 	rate_of_requesters 	1
scalar Network600.node10 	number_of_resources 	33000
scalar Network600.node10 	time_period 	4
scalar Network600.node10 	number_of_messages 	2
scalar Network600.node10 	discovery_latency 	3960
scalar Network600.node10 	number_of_desired_resources 	20
scalar Network600.node10 	query_homogenity_rate 	33.333333333333
scalar Network600.node10 	qrecord_time 	14352.99426547
scalar Network600.node10 	discovery_resolution_rate 	0
scalar Network600.node310 	rate_of_requesters 	1
scalar Network600.node310 	number_of_resources 	33000
scalar Network600.node310 	time_period 	2
scalar Network600.node310 	number_of_messages 	2
scalar Network600.node310 	discovery_latency 	3978
scalar Network600.node310 	number_of_desired_resources 	20
scalar Network600.node310 	query_homogenity_rate 	33.333333333333
scalar Network600.node310 	qrecord_time 	14386.768604079
scalar Network600.node310 	discovery_resolution_rate 	0
scalar Network600.node280 	rate_of_requesters 	1
scalar Network600.node280 	number_of_resources 	33000
scalar Network600.node280 	time_period 	3
scalar Network600.node280 	number_of_messages 	209
scalar Network600.node280 	discovery_latency 	3852
scalar Network600.node280 	number_of_desired_resources 	20
scalar Network600.node280 	query_homogenity_rate 	33.333333333333
scalar Network600.node280 	qrecord_time 	14525.547150502
scalar Network600.node280 	discovery_resolution_rate 	83.333333333333
scalar Network600.node360 	rate_of_requesters 	1
scalar Network600.node360 	number_of_resources 	33000
scalar Network600.node360 	time_period 	2
scalar Network600.node360 	number_of_messages 	5
scalar Network600.node360 	discovery_latency 	3930
scalar Network600.node360 	number_of_desired_resources 	20
scalar Network600.node360 	query_homogenity_rate 	33.333333333333
scalar Network600.node360 	qrecord_time 	14565.756032979
scalar Network600.node360 	discovery_resolution_rate 	33.333333333333
scalar Network600.node520 	rate_of_requesters 	1
scalar Network600.node520 	number_of_resources 	33000
scalar Network600.node520 	time_period 	2
scalar Network600.node520 	number_of_messages 	2
scalar Network600.node520 	discovery_latency 	4068
scalar Network600.node520 	number_of_desired_resources 	20
scalar Network600.node520 	query_homogenity_rate 	33.333333333333
scalar Network600.node520 	qrecord_time 	14657.07480735
scalar Network600.node520 	discovery_resolution_rate 	0
scalar Network600.node400 	rate_of_requesters 	1
scalar Network600.node400 	number_of_resources 	33000
scalar Network600.node400 	time_period 	4
scalar Network600.node400 	number_of_messages 	2
scalar Network600.node400 	discovery_latency 	4152
scalar Network600.node400 	number_of_desired_resources 	20
scalar Network600.node400 	query_homogenity_rate 	33.333333333333
scalar Network600.node400 	qrecord_time 	14658.906972347
scalar Network600.node400 	discovery_resolution_rate 	0
scalar Network600.node60 	rate_of_requesters 	1
scalar Network600.node60 	number_of_resources 	33000
scalar Network600.node60 	time_period 	3
scalar Network600.node60 	number_of_messages 	2
scalar Network600.node60 	discovery_latency 	3978
scalar Network600.node60 	number_of_desired_resources 	20
scalar Network600.node60 	query_homogenity_rate 	33.333333333333
scalar Network600.node60 	qrecord_time 	14673.703385353
scalar Network600.node60 	discovery_resolution_rate 	0
scalar Network600.node530 	rate_of_requesters 	1
scalar Network600.node530 	number_of_resources 	33000
scalar Network600.node530 	time_period 	4
scalar Network600.node530 	number_of_messages 	97
scalar Network600.node530 	discovery_latency 	3456
scalar Network600.node530 	number_of_desired_resources 	20
scalar Network600.node530 	query_homogenity_rate 	33.333333333333
scalar Network600.node530 	qrecord_time 	14676.488555761
scalar Network600.node530 	discovery_resolution_rate 	66.666666666667
scalar Network600.node20 	rate_of_requesters 	1
scalar Network600.node20 	number_of_resources 	33000
scalar Network600.node20 	time_period 	3
scalar Network600.node20 	number_of_messages 	2
scalar Network600.node20 	discovery_latency 	3978
scalar Network600.node20 	number_of_desired_resources 	20
scalar Network600.node20 	query_homogenity_rate 	33.333333333333
scalar Network600.node20 	qrecord_time 	14753.962632148
scalar Network600.node20 	discovery_resolution_rate 	0
scalar Network600.node140 	rate_of_requesters 	1
scalar Network600.node140 	number_of_resources 	33000
scalar Network600.node140 	time_period 	2
scalar Network600.node140 	number_of_messages 	44
scalar Network600.node140 	discovery_latency 	3468
scalar Network600.node140 	number_of_desired_resources 	20
scalar Network600.node140 	query_homogenity_rate 	33.333333333333
scalar Network600.node140 	qrecord_time 	14809.078214518
scalar Network600.node140 	discovery_resolution_rate 	66.666666666667
scalar Network600.node200 	rate_of_requesters 	1
scalar Network600.node200 	number_of_resources 	33000
scalar Network600.node200 	time_period 	3
scalar Network600.node200 	number_of_messages 	34
scalar Network600.node200 	discovery_latency 	4002
scalar Network600.node200 	number_of_desired_resources 	20
scalar Network600.node200 	query_homogenity_rate 	33.333333333333
scalar Network600.node200 	qrecord_time 	14850.042720873
scalar Network600.node200 	discovery_resolution_rate 	33.333333333333
scalar Network600.node450 	rate_of_requesters 	1
scalar Network600.node450 	number_of_resources 	33000
scalar Network600.node450 	time_period 	5
scalar Network600.node450 	number_of_messages 	35
scalar Network600.node450 	discovery_latency 	3870
scalar Network600.node450 	number_of_desired_resources 	20
scalar Network600.node450 	query_homogenity_rate 	33.333333333333
scalar Network600.node450 	qrecord_time 	14865.119193665
scalar Network600.node450 	discovery_resolution_rate 	33.333333333333
scalar Network600.node100 	rate_of_requesters 	1
scalar Network600.node100 	number_of_resources 	33000
scalar Network600.node100 	time_period 	4
scalar Network600.node100 	number_of_messages 	202
scalar Network600.node100 	discovery_latency 	4020
scalar Network600.node100 	number_of_desired_resources 	20
scalar Network600.node100 	query_homogenity_rate 	33.333333333333
scalar Network600.node100 	qrecord_time 	14969.821404721
scalar Network600.node100 	discovery_resolution_rate 	50
scalar Network600.node470 	rate_of_requesters 	1
scalar Network600.node470 	number_of_resources 	33000
scalar Network600.node470 	time_period 	2
scalar Network600.node470 	number_of_messages 	27
scalar Network600.node470 	discovery_latency 	4002
scalar Network600.node470 	number_of_desired_resources 	20
scalar Network600.node470 	query_homogenity_rate 	33.333333333333
scalar Network600.node470 	qrecord_time 	15103.07183559
scalar Network600.node470 	discovery_resolution_rate 	33.333333333333
scalar Network600.node250 	rate_of_requesters 	1
scalar Network600.node250 	number_of_resources 	33000
scalar Network600.node250 	time_period 	3
scalar Network600.node250 	number_of_messages 	10
scalar Network600.node250 	discovery_latency 	4038
scalar Network600.node250 	number_of_desired_resources 	20
scalar Network600.node250 	query_homogenity_rate 	33.333333333333
scalar Network600.node250 	qrecord_time 	15118.720954382
scalar Network600.node250 	discovery_resolution_rate 	33.333333333333
scalar Network600.node260 	rate_of_requesters 	1
scalar Network600.node260 	number_of_resources 	33000
scalar Network600.node260 	time_period 	2
scalar Network600.node260 	number_of_messages 	81
scalar Network600.node260 	discovery_latency 	3612
scalar Network600.node260 	number_of_desired_resources 	20
scalar Network600.node260 	query_homogenity_rate 	33.333333333333
scalar Network600.node260 	qrecord_time 	15176.956593613
scalar Network600.node260 	discovery_resolution_rate 	66.666666666667
scalar Network600.node240 	rate_of_requesters 	1
scalar Network600.node240 	number_of_resources 	33000
scalar Network600.node240 	time_period 	2
scalar Network600.node240 	number_of_messages 	2
scalar Network600.node240 	discovery_latency 	4026
scalar Network600.node240 	number_of_desired_resources 	20
scalar Network600.node240 	query_homogenity_rate 	33.333333333333
scalar Network600.node240 	qrecord_time 	15177.428020162
scalar Network600.node240 	discovery_resolution_rate 	0
scalar Network600.node170 	rate_of_requesters 	1
scalar Network600.node170 	number_of_resources 	33000
scalar Network600.node170 	time_period 	3
scalar Network600.node170 	number_of_messages 	19
scalar Network600.node170 	discovery_latency 	4122
scalar Network600.node170 	number_of_desired_resources 	20
scalar Network600.node170 	query_homogenity_rate 	33.333333333333
scalar Network600.node170 	qrecord_time 	15189.425376141
scalar Network600.node170 	discovery_resolution_rate 	33.333333333333
scalar Network600.node220 	rate_of_requesters 	1
scalar Network600.node220 	number_of_resources 	33000
scalar Network600.node220 	time_period 	4
scalar Network600.node220 	number_of_messages 	2
scalar Network600.node220 	discovery_latency 	4038
scalar Network600.node220 	number_of_desired_resources 	20
scalar Network600.node220 	query_homogenity_rate 	33.333333333333
scalar Network600.node220 	qrecord_time 	15288.336617594
scalar Network600.node220 	discovery_resolution_rate 	0
scalar Network600.node0 	rate_of_requesters 	1
scalar Network600.node0 	number_of_resources 	33000
scalar Network600.node0 	time_period 	5
scalar Network600.node0 	number_of_messages 	189
scalar Network600.node0 	discovery_latency 	3906
scalar Network600.node0 	number_of_desired_resources 	20
scalar Network600.node0 	query_homogenity_rate 	33.333333333333
scalar Network600.node0 	qrecord_time 	15305.265038181
scalar Network600.node0 	discovery_resolution_rate 	50
scalar Network600.node320 	rate_of_requesters 	1
scalar Network600.node320 	number_of_resources 	33000
scalar Network600.node320 	time_period 	2
scalar Network600.node320 	number_of_messages 	48
scalar Network600.node320 	discovery_latency 	3528
scalar Network600.node320 	number_of_desired_resources 	20
scalar Network600.node320 	query_homogenity_rate 	33.333333333333
scalar Network600.node320 	qrecord_time 	15310.648741183
scalar Network600.node320 	discovery_resolution_rate 	66.666666666667
scalar Network600.node560 	rate_of_requesters 	1
scalar Network600.node560 	number_of_resources 	33000
scalar Network600.node560 	time_period 	3
scalar Network600.node560 	number_of_messages 	5
scalar Network600.node560 	discovery_latency 	3960
scalar Network600.node560 	number_of_desired_resources 	20
scalar Network600.node560 	query_homogenity_rate 	33.333333333333
scalar Network600.node560 	qrecord_time 	15446.051054314
scalar Network600.node560 	discovery_resolution_rate 	33.333333333333
scalar Network600.node590 	rate_of_requesters 	1
scalar Network600.node590 	number_of_resources 	33000
scalar Network600.node590 	time_period 	4
scalar Network600.node590 	number_of_messages 	333
scalar Network600.node590 	discovery_latency 	3534
scalar Network600.node590 	number_of_desired_resources 	20
scalar Network600.node590 	query_homogenity_rate 	33.333333333333
scalar Network600.node590 	qrecord_time 	15480.020863693
scalar Network600.node590 	discovery_resolution_rate 	83.333333333333
scalar Network600.node530 	rate_of_requesters 	1
scalar Network600.node530 	number_of_resources 	33000
scalar Network600.node530 	time_period 	5
scalar Network600.node530 	number_of_messages 	97
scalar Network600.node530 	discovery_latency 	4026
scalar Network600.node530 	number_of_desired_resources 	20
scalar Network600.node530 	query_homogenity_rate 	33.333333333333
scalar Network600.node530 	qrecord_time 	15484.847581243
scalar Network600.node530 	discovery_resolution_rate 	33.333333333333
scalar Network600.node200 	rate_of_requesters 	1
scalar Network600.node200 	number_of_resources 	33000
scalar Network600.node200 	time_period 	4
scalar Network600.node200 	number_of_messages 	184
scalar Network600.node200 	discovery_latency 	4140
scalar Network600.node200 	number_of_desired_resources 	20
scalar Network600.node200 	query_homogenity_rate 	33.333333333333
scalar Network600.node200 	qrecord_time 	15723.394326407
scalar Network600.node200 	discovery_resolution_rate 	16.666666666667
scalar Network600.node280 	rate_of_requesters 	1
scalar Network600.node280 	number_of_resources 	33000
scalar Network600.node280 	time_period 	4
scalar Network600.node280 	number_of_messages 	2
scalar Network600.node280 	discovery_latency 	4008
scalar Network600.node280 	number_of_desired_resources 	20
scalar Network600.node280 	query_homogenity_rate 	33.333333333333
scalar Network600.node280 	qrecord_time 	15839.740459052
scalar Network600.node280 	discovery_resolution_rate 	0
scalar Network600.node330 	rate_of_requesters 	1
scalar Network600.node330 	number_of_resources 	33000
scalar Network600.node330 	time_period 	2
scalar Network600.node330 	number_of_messages 	2
scalar Network600.node330 	discovery_latency 	4074
scalar Network600.node330 	number_of_desired_resources 	20
scalar Network600.node330 	query_homogenity_rate 	33.333333333333
scalar Network600.node330 	qrecord_time 	15844.040779115
scalar Network600.node330 	discovery_resolution_rate 	0
scalar Network600.node100 	rate_of_requesters 	1
scalar Network600.node100 	number_of_resources 	33000
scalar Network600.node100 	time_period 	5
scalar Network600.node100 	number_of_messages 	36
scalar Network600.node100 	discovery_latency 	4062
scalar Network600.node100 	number_of_desired_resources 	20
scalar Network600.node100 	query_homogenity_rate 	33.333333333333
scalar Network600.node100 	qrecord_time 	15900.97708658
scalar Network600.node100 	discovery_resolution_rate 	33.333333333333
scalar Network600.node250 	rate_of_requesters 	1
scalar Network600.node250 	number_of_resources 	33000
scalar Network600.node250 	time_period 	4
scalar Network600.node250 	number_of_messages 	209
scalar Network600.node250 	discovery_latency 	3552
scalar Network600.node250 	number_of_desired_resources 	20
scalar Network600.node250 	query_homogenity_rate 	33.333333333333
scalar Network600.node250 	qrecord_time 	16050.116989491
scalar Network600.node250 	discovery_resolution_rate 	83.333333333333
scalar Network600.node130 	rate_of_requesters 	1
scalar Network600.node130 	number_of_resources 	33000
scalar Network600.node130 	time_period 	3
scalar Network600.node130 	number_of_messages 	75
scalar Network600.node130 	discovery_latency 	3336
scalar Network600.node130 	number_of_desired_resources 	20
scalar Network600.node130 	query_homogenity_rate 	33.333333333333
scalar Network600.node130 	qrecord_time 	16113.734549498
scalar Network600.node130 	discovery_resolution_rate 	66.666666666667
scalar Network600.node110 	rate_of_requesters 	1
scalar Network600.node110 	number_of_resources 	33000
scalar Network600.node110 	time_period 	2
scalar Network600.node110 	number_of_messages 	14
scalar Network600.node110 	discovery_latency 	3816
scalar Network600.node110 	number_of_desired_resources 	20
scalar Network600.node110 	query_homogenity_rate 	33.333333333333
scalar Network600.node110 	qrecord_time 	16313.420911914
[...]
scalar Network600.node470 	number_of_resources 	33000
scalar Network600.node470 	time_period 	10
scalar Network600.node470 	number_of_messages 	17
scalar Network600.node470 	discovery_latency 	156
scalar Network600.node470 	number_of_desired_resources 	20
scalar Network600.node470 	query_homogenity_rate 	33.333333333333
scalar Network600.node470 	qrecord_time 	48979.139045501
scalar Network600.node470 	discovery_resolution_rate 	100
scalar Network600.node360 	rate_of_requesters 	1
scalar Network600.node360 	number_of_resources 	33000
scalar Network600.node360 	time_period 	9
scalar Network600.node360 	number_of_messages 	11
scalar Network600.node360 	discovery_latency 	3348
scalar Network600.node360 	number_of_desired_resources 	20
scalar Network600.node360 	query_homogenity_rate 	33.333333333333
scalar Network600.node360 	qrecord_time 	49034.103615525
scalar Network600.node360 	discovery_resolution_rate 	66.666666666667
scalar Network600.node520 	rate_of_requesters 	1
scalar Network600.node520 	number_of_resources 	33000
scalar Network600.node520 	time_period 	9
scalar Network600.node520 	number_of_messages 	188
scalar Network600.node520 	discovery_latency 	4056
scalar Network600.node520 	number_of_desired_resources 	20
scalar Network600.node520 	query_homogenity_rate 	33.333333333333
scalar Network600.node520 	qrecord_time 	49226.12491774
scalar Network600.node520 	discovery_resolution_rate 	50
scalar Network600.node270 	rate_of_requesters 	1
scalar Network600.node270 	number_of_resources 	33000
scalar Network600.node270 	time_period 	10
scalar Network600.node270 	number_of_messages 	21
scalar Network600.node270 	discovery_latency 	144
scalar Network600.node270 	number_of_desired_resources 	20
scalar Network600.node270 	query_homogenity_rate 	33.333333333333
scalar Network600.node270 	qrecord_time 	49288.641298755
scalar Network600.node270 	discovery_resolution_rate 	100
scalar Network600.node330 	rate_of_requesters 	1
scalar Network600.node330 	number_of_resources 	33000
scalar Network600.node330 	time_period 	10
scalar Network600.node330 	number_of_messages 	23
scalar Network600.node330 	discovery_latency 	204
scalar Network600.node330 	number_of_desired_resources 	20
scalar Network600.node330 	query_homogenity_rate 	33.333333333333
scalar Network600.node330 	qrecord_time 	49312.041723707
scalar Network600.node330 	discovery_resolution_rate 	100
scalar Network600.node530 	rate_of_requesters 	1
scalar Network600.node530 	number_of_resources 	33000
scalar Network600.node530 	time_period 	10
scalar Network600.node530 	number_of_messages 	167
scalar Network600.node530 	discovery_latency 	3360
scalar Network600.node530 	number_of_desired_resources 	20
scalar Network600.node530 	query_homogenity_rate 	33.333333333333
scalar Network600.node530 	qrecord_time 	49422.093706383
scalar Network600.node530 	discovery_resolution_rate 	83.333333333333
scalar Network600.node240 	rate_of_requesters 	1
scalar Network600.node240 	number_of_resources 	33000
scalar Network600.node240 	time_period 	7
scalar Network600.node240 	number_of_messages 	18
scalar Network600.node240 	discovery_latency 	132.00000000001
scalar Network600.node240 	number_of_desired_resources 	20
scalar Network600.node240 	query_homogenity_rate 	33.333333333333
scalar Network600.node240 	qrecord_time 	49458.41331169
scalar Network600.node240 	discovery_resolution_rate 	100
scalar Network600.node70 	rate_of_requesters 	1
scalar Network600.node70 	number_of_resources 	33000
scalar Network600.node70 	time_period 	10
scalar Network600.node70 	number_of_messages 	29
scalar Network600.node70 	discovery_latency 	228
scalar Network600.node70 	number_of_desired_resources 	20
scalar Network600.node70 	query_homogenity_rate 	33.333333333333
scalar Network600.node70 	qrecord_time 	49498.928135822
scalar Network600.node70 	discovery_resolution_rate 	100
scalar Network600.node220 	rate_of_requesters 	1
scalar Network600.node220 	number_of_resources 	33000
scalar Network600.node220 	time_period 	8
scalar Network600.node220 	number_of_messages 	21
scalar Network600.node220 	discovery_latency 	203.99999999999
scalar Network600.node220 	number_of_desired_resources 	20
scalar Network600.node220 	query_homogenity_rate 	33.333333333333
scalar Network600.node220 	qrecord_time 	49612.417234913
scalar Network600.node220 	discovery_resolution_rate 	100
scalar Network600.node510 	rate_of_requesters 	1
scalar Network600.node510 	number_of_resources 	33000
scalar Network600.node510 	time_period 	7
scalar Network600.node510 	number_of_messages 	31
scalar Network600.node510 	discovery_latency 	288
scalar Network600.node510 	number_of_desired_resources 	20
scalar Network600.node510 	query_homogenity_rate 	33.333333333333
scalar Network600.node510 	qrecord_time 	49661.395305191
scalar Network600.node510 	discovery_resolution_rate 	100
scalar Network600.node520 	rate_of_requesters 	1
scalar Network600.node520 	number_of_resources 	33000
scalar Network600.node520 	time_period 	10
scalar Network600.node520 	number_of_messages 	61
scalar Network600.node520 	discovery_latency 	732
scalar Network600.node520 	number_of_desired_resources 	20
scalar Network600.node520 	query_homogenity_rate 	33.333333333333
scalar Network600.node520 	qrecord_time 	50381.6436259
scalar Network600.node520 	discovery_resolution_rate 	100
scalar Network600.node340 	rate_of_requesters 	1
scalar Network600.node340 	number_of_resources 	33000
scalar Network600.node340 	time_period 	8
scalar Network600.node340 	number_of_messages 	43
scalar Network600.node340 	discovery_latency 	504
scalar Network600.node340 	number_of_desired_resources 	20
scalar Network600.node340 	query_homogenity_rate 	33.333333333333
scalar Network600.node340 	qrecord_time 	50594.902420602
scalar Network600.node340 	discovery_resolution_rate 	100
scalar Network600.node370 	rate_of_requesters 	1
scalar Network600.node370 	number_of_resources 	33000
scalar Network600.node370 	time_period 	9
scalar Network600.node370 	number_of_messages 	46
scalar Network600.node370 	discovery_latency 	396
scalar Network600.node370 	number_of_desired_resources 	20
scalar Network600.node370 	query_homogenity_rate 	33.333333333333
scalar Network600.node370 	qrecord_time 	50858.594685625
scalar Network600.node370 	discovery_resolution_rate 	100
scalar Network600.node340 	rate_of_requesters 	1
scalar Network600.node340 	number_of_resources 	33000
scalar Network600.node340 	time_period 	9
scalar Network600.node340 	number_of_messages 	32
scalar Network600.node340 	discovery_latency 	300
scalar Network600.node340 	number_of_desired_resources 	20
scalar Network600.node340 	query_homogenity_rate 	33.333333333333
scalar Network600.node340 	qrecord_time 	50914.67201235
scalar Network600.node340 	discovery_resolution_rate 	100
scalar Network600.node360 	rate_of_requesters 	1
scalar Network600.node360 	number_of_resources 	33000
scalar Network600.node360 	time_period 	10
scalar Network600.node360 	number_of_messages 	18
scalar Network600.node360 	discovery_latency 	156
scalar Network600.node360 	number_of_desired_resources 	20
scalar Network600.node360 	query_homogenity_rate 	33.333333333333
scalar Network600.node360 	qrecord_time 	51294.44507791
scalar Network600.node360 	discovery_resolution_rate 	100
scalar Network600.node320 	rate_of_requesters 	1
scalar Network600.node320 	number_of_resources 	33000
scalar Network600.node320 	time_period 	6
scalar Network600.node320 	number_of_messages 	32
scalar Network600.node320 	discovery_latency 	180
scalar Network600.node320 	number_of_desired_resources 	20
scalar Network600.node320 	query_homogenity_rate 	33.333333333333
scalar Network600.node320 	qrecord_time 	51399.621659507
scalar Network600.node320 	discovery_resolution_rate 	100
scalar Network600.node290 	rate_of_requesters 	1
scalar Network600.node290 	number_of_resources 	33000
scalar Network600.node290 	time_period 	7
scalar Network600.node290 	number_of_messages 	25
scalar Network600.node290 	discovery_latency 	288
scalar Network600.node290 	number_of_desired_resources 	20
scalar Network600.node290 	query_homogenity_rate 	33.333333333333
scalar Network600.node290 	qrecord_time 	51725.165129408
scalar Network600.node290 	discovery_resolution_rate 	100
scalar Network600.node90 	rate_of_requesters 	1
scalar Network600.node90 	number_of_resources 	33000
scalar Network600.node90 	time_period 	10
scalar Network600.node90 	number_of_messages 	37
scalar Network600.node90 	discovery_latency 	276
scalar Network600.node90 	number_of_desired_resources 	20
scalar Network600.node90 	query_homogenity_rate 	33.333333333333
scalar Network600.node90 	qrecord_time 	51793.690458216
scalar Network600.node90 	discovery_resolution_rate 	100
scalar Network600.node30 	rate_of_requesters 	1
scalar Network600.node30 	number_of_resources 	33000
scalar Network600.node30 	time_period 	10
scalar Network600.node30 	number_of_messages 	38
scalar Network600.node30 	discovery_latency 	288
scalar Network600.node30 	number_of_desired_resources 	20
scalar Network600.node30 	query_homogenity_rate 	33.333333333333
scalar Network600.node30 	qrecord_time 	51803.85623234
scalar Network600.node30 	discovery_resolution_rate 	100
scalar Network600.node370 	rate_of_requesters 	1
scalar Network600.node370 	number_of_resources 	33000
scalar Network600.node370 	time_period 	10
scalar Network600.node370 	number_of_messages 	32
scalar Network600.node370 	discovery_latency 	228
scalar Network600.node370 	number_of_desired_resources 	20
scalar Network600.node370 	query_homogenity_rate 	33.333333333333
scalar Network600.node370 	qrecord_time 	51860.62328232
scalar Network600.node370 	discovery_resolution_rate 	100
scalar Network600.node320 	rate_of_requesters 	1
scalar Network600.node320 	number_of_resources 	33000
scalar Network600.node320 	time_period 	7
scalar Network600.node320 	number_of_messages 	59
scalar Network600.node320 	discovery_latency 	528
scalar Network600.node320 	number_of_desired_resources 	20
scalar Network600.node320 	query_homogenity_rate 	33.333333333333
scalar Network600.node320 	qrecord_time 	52266.217254176
scalar Network600.node320 	discovery_resolution_rate 	100
scalar Network600.node240 	rate_of_requesters 	1
scalar Network600.node240 	number_of_resources 	33000
scalar Network600.node240 	time_period 	8
scalar Network600.node240 	number_of_messages 	19
scalar Network600.node240 	discovery_latency 	144
scalar Network600.node240 	number_of_desired_resources 	20
scalar Network600.node240 	query_homogenity_rate 	33.333333333333
scalar Network600.node240 	qrecord_time 	54643.993903607
scalar Network600.node240 	discovery_resolution_rate 	100
scalar Network600.node480 	rate_of_requesters 	1
scalar Network600.node480 	number_of_resources 	33000
scalar Network600.node480 	time_period 	7
scalar Network600.node480 	number_of_messages 	20
scalar Network600.node480 	discovery_latency 	108
scalar Network600.node480 	number_of_desired_resources 	20
scalar Network600.node480 	query_homogenity_rate 	33.333333333333
scalar Network600.node480 	qrecord_time 	55038.491399578
scalar Network600.node480 	discovery_resolution_rate 	100
scalar Network600.node340 	rate_of_requesters 	1
scalar Network600.node340 	number_of_resources 	33000
scalar Network600.node340 	time_period 	10
scalar Network600.node340 	number_of_messages 	12
scalar Network600.node340 	discovery_latency 	84.000000000003
scalar Network600.node340 	number_of_desired_resources 	20
scalar Network600.node340 	query_homogenity_rate 	33.333333333333
scalar Network600.node340 	qrecord_time 	55757.763827654
scalar Network600.node340 	discovery_resolution_rate 	100
scalar Network600.node320 	rate_of_requesters 	1
scalar Network600.node320 	number_of_resources 	33000
scalar Network600.node320 	time_period 	8
scalar Network600.node320 	number_of_messages 	29
scalar Network600.node320 	discovery_latency 	180
scalar Network600.node320 	number_of_desired_resources 	20
scalar Network600.node320 	query_homogenity_rate 	33.333333333333
scalar Network600.node320 	qrecord_time 	56375.773179929
scalar Network600.node320 	discovery_resolution_rate 	100
scalar Network600.node220 	rate_of_requesters 	1
scalar Network600.node220 	number_of_resources 	33000
scalar Network600.node220 	time_period 	9
scalar Network600.node220 	number_of_messages 	14
scalar Network600.node220 	discovery_latency 	144
scalar Network600.node220 	number_of_desired_resources 	20
scalar Network600.node220 	query_homogenity_rate 	33.333333333333
scalar Network600.node220 	qrecord_time 	56567.029568968
scalar Network600.node220 	discovery_resolution_rate 	100
scalar Network600.node240 	rate_of_requesters 	1
scalar Network600.node240 	number_of_resources 	33000
scalar Network600.node240 	time_period 	9
scalar Network600.node240 	number_of_messages 	19
scalar Network600.node240 	discovery_latency 	144
scalar Network600.node240 	number_of_desired_resources 	20
scalar Network600.node240 	query_homogenity_rate 	33.333333333333
scalar Network600.node240 	qrecord_time 	56589.466680459
scalar Network600.node240 	discovery_resolution_rate 	100
scalar Network600.node240 	rate_of_requesters 	1
scalar Network600.node240 	number_of_resources 	33000
scalar Network600.node240 	time_period 	10
scalar Network600.node240 	number_of_messages 	19
scalar Network600.node240 	discovery_latency 	144
scalar Network600.node240 	number_of_desired_resources 	20
scalar Network600.node240 	query_homogenity_rate 	33.333333333333
scalar Network600.node240 	qrecord_time 	57116.388574606
scalar Network600.node240 	discovery_resolution_rate 	100
scalar Network600.node290 	rate_of_requesters 	1
scalar Network600.node290 	number_of_resources 	33000
scalar Network600.node290 	time_period 	8
scalar Network600.node290 	number_of_messages 	16
scalar Network600.node290 	discovery_latency 	95.999999999997
scalar Network600.node290 	number_of_desired_resources 	20
scalar Network600.node290 	query_homogenity_rate 	33.333333333333
scalar Network600.node290 	qrecord_time 	57829.674230764
scalar Network600.node290 	discovery_resolution_rate 	100
scalar Network600.node110 	rate_of_requesters 	1
scalar Network600.node110 	number_of_resources 	33000
scalar Network600.node110 	time_period 	10
scalar Network600.node110 	number_of_messages 	11
scalar Network600.node110 	discovery_latency 	144
scalar Network600.node110 	number_of_desired_resources 	20
scalar Network600.node110 	query_homogenity_rate 	33.333333333333
scalar Network600.node110 	qrecord_time 	59493.614859398
scalar Network600.node110 	discovery_resolution_rate 	100
scalar Network600.node480 	rate_of_requesters 	1
scalar Network600.node480 	number_of_resources 	33000
scalar Network600.node480 	time_period 	8
scalar Network600.node480 	number_of_messages 	20
scalar Network600.node480 	discovery_latency 	108
scalar Network600.node480 	number_of_desired_resources 	20
scalar Network600.node480 	query_homogenity_rate 	33.333333333333
scalar Network600.node480 	qrecord_time 	60081.367222616
scalar Network600.node480 	discovery_resolution_rate 	100
scalar Network600.node480 	rate_of_requesters 	1
scalar Network600.node480 	number_of_resources 	33000
scalar Network600.node480 	time_period 	9
scalar Network600.node480 	number_of_messages 	20
scalar Network600.node480 	discovery_latency 	108
scalar Network600.node480 	number_of_desired_resources 	20
scalar Network600.node480 	query_homogenity_rate 	33.333333333333
scalar Network600.node480 	qrecord_time 	60276.308185027
scalar Network600.node480 	discovery_resolution_rate 	100
scalar Network600.node220 	rate_of_requesters 	1
scalar Network600.node220 	number_of_resources 	33000
scalar Network600.node220 	time_period 	10
scalar Network600.node220 	number_of_messages 	14
scalar Network600.node220 	discovery_latency 	144.00000000001
scalar Network600.node220 	number_of_desired_resources 	20
scalar Network600.node220 	query_homogenity_rate 	33.333333333333
scalar Network600.node220 	qrecord_time 	60473.088480694
scalar Network600.node220 	discovery_resolution_rate 	100
scalar Network600.node510 	rate_of_requesters 	1
scalar Network600.node510 	number_of_resources 	33000
scalar Network600.node510 	time_period 	8
scalar Network600.node510 	number_of_messages 	20
scalar Network600.node510 	discovery_latency 	132.00000000001
scalar Network600.node510 	number_of_desired_resources 	20
scalar Network600.node510 	query_homogenity_rate 	33.333333333333
scalar Network600.node510 	qrecord_time 	61704.331583954
scalar Network600.node510 	discovery_resolution_rate 	100
scalar Network600.node290 	rate_of_requesters 	1
scalar Network600.node290 	number_of_resources 	33000
scalar Network600.node290 	time_period 	9
scalar Network600.node290 	number_of_messages 	16
scalar Network600.node290 	discovery_latency 	95.999999999997
scalar Network600.node290 	number_of_desired_resources 	20
scalar Network600.node290 	query_homogenity_rate 	33.333333333333
scalar Network600.node290 	qrecord_time 	63131.988799088
scalar Network600.node290 	discovery_resolution_rate 	100
scalar Network600.node480 	rate_of_requesters 	1
scalar Network600.node480 	number_of_resources 	33000
scalar Network600.node480 	time_period 	10
scalar Network600.node480 	number_of_messages 	20
scalar Network600.node480 	discovery_latency 	108
scalar Network600.node480 	number_of_desired_resources 	20
scalar Network600.node480 	query_homogenity_rate 	33.333333333333
scalar Network600.node480 	qrecord_time 	64436.912965084
scalar Network600.node480 	discovery_resolution_rate 	100
scalar Network600.node290 	rate_of_requesters 	1
scalar Network600.node290 	number_of_resources 	33000
scalar Network600.node290 	time_period 	10
scalar Network600.node290 	number_of_messages 	16
scalar Network600.node290 	discovery_latency 	96.000000000004
scalar Network600.node290 	number_of_desired_resources 	20
scalar Network600.node290 	query_homogenity_rate 	33.333333333333
scalar Network600.node290 	qrecord_time 	65680.421051764
scalar Network600.node290 	discovery_resolution_rate 	100
scalar Network600.node510 	rate_of_requesters 	1
scalar Network600.node510 	number_of_resources 	33000
scalar Network600.node510 	time_period 	9
scalar Network600.node510 	number_of_messages 	20
scalar Network600.node510 	discovery_latency 	132.00000000001
scalar Network600.node510 	number_of_desired_resources 	20
scalar Network600.node510 	query_homogenity_rate 	33.333333333333
scalar Network600.node510 	qrecord_time 	73338.741715697
scalar Network600.node510 	discovery_resolution_rate 	100
scalar Network600.node320 	rate_of_requesters 	1
scalar Network600.node320 	number_of_resources 	33000
scalar Network600.node320 	time_period 	9
scalar Network600.node320 	number_of_messages 	28
scalar Network600.node320 	discovery_latency 	180.00000000001
scalar Network600.node320 	number_of_desired_resources 	20
scalar Network600.node320 	query_homogenity_rate 	33.333333333333
scalar Network600.node320 	qrecord_time 	73832.647600233
scalar Network600.node320 	discovery_resolution_rate 	100
scalar Network600.node320 	rate_of_requesters 	1
scalar Network600.node320 	number_of_resources 	33000
scalar Network600.node320 	time_period 	10
scalar Network600.node320 	number_of_messages 	28
scalar Network600.node320 	discovery_latency 	180.00000000001
scalar Network600.node320 	number_of_desired_resources 	20
scalar Network600.node320 	query_homogenity_rate 	33.333333333333
scalar Network600.node320 	qrecord_time 	77841.794649117
scalar Network600.node320 	discovery_resolution_rate 	100
scalar Network600.node510 	rate_of_requesters 	1
scalar Network600.node510 	number_of_resources 	33000
scalar Network600.node510 	time_period 	10
scalar Network600.node510 	number_of_messages 	20
scalar Network600.node510 	discovery_latency 	132.00000000001
scalar Network600.node510 	number_of_desired_resources 	20
scalar Network600.node510 	query_homogenity_rate 	33.333333333333
scalar Network600.node510 	qrecord_time 	84722.618723222
scalar Network600.node510 	discovery_resolution_rate 	100
