version 2
run net600-2-20150623-20:18:51-21644
attr as 1
attr configname net600
attr datetime 20150623-20:18:51
attr dnor 20
attr experiment net600
attr inifile omnetpp.ini
attr iterationvars "$rhdrq=3, $dnor=20, $as=1"
attr iterationvars2 "$rhdrq=3, $dnor=20, $as=1, $repetition=2"
attr measurement "$rhdrq=3, $dnor=20, $as=1"
attr network Network600
attr processid 21644
attr repetition 2
attr replication #2
attr resultdir results
attr rhdrq 3
attr runnumber 2
attr seedset 2

scalar . 	as 	1
scalar . 	dnor 	20
scalar . 	rhdrq 	3
scalar Network600.node20 	rate_of_requesters 	1
scalar Network600.node20 	number_of_resources 	33000
scalar Network600.node20 	time_period 	1
scalar Network600.node20 	number_of_messages 	23
scalar Network600.node20 	discovery_latency 	168
scalar Network600.node20 	number_of_desired_resources 	20
scalar Network600.node20 	query_homogenity_rate 	33.333333333333
scalar Network600.node20 	qrecord_time 	4858
scalar Network600.node20 	discovery_resolution_rate 	100
scalar Network600.node120 	rate_of_requesters 	1
scalar Network600.node120 	number_of_resources 	33000
scalar Network600.node120 	time_period 	1
scalar Network600.node120 	number_of_messages 	25
scalar Network600.node120 	discovery_latency 	192
scalar Network600.node120 	number_of_desired_resources 	20
scalar Network600.node120 	query_homogenity_rate 	33.333333333333
scalar Network600.node120 	qrecord_time 	4942
scalar Network600.node120 	discovery_resolution_rate 	100
scalar Network600.node490 	rate_of_requesters 	1
scalar Network600.node490 	number_of_resources 	33000
scalar Network600.node490 	time_period 	1
scalar Network600.node490 	number_of_messages 	35
scalar Network600.node490 	discovery_latency 	276
scalar Network600.node490 	number_of_desired_resources 	20
scalar Network600.node490 	query_homogenity_rate 	33.333333333333
scalar Network600.node490 	qrecord_time 	4942
scalar Network600.node490 	discovery_resolution_rate 	100
scalar Network600.node220 	rate_of_requesters 	1
scalar Network600.node220 	number_of_resources 	33000
scalar Network600.node220 	time_period 	1
scalar Network600.node220 	number_of_messages 	41
scalar Network600.node220 	discovery_latency 	444
scalar Network600.node220 	number_of_desired_resources 	20
scalar Network600.node220 	query_homogenity_rate 	33.333333333333
scalar Network600.node220 	qrecord_time 	5134
scalar Network600.node220 	discovery_resolution_rate 	100
scalar Network600.node240 	rate_of_requesters 	1
scalar Network600.node240 	number_of_resources 	33000
scalar Network600.node240 	time_period 	1
scalar Network600.node240 	number_of_messages 	55
scalar Network600.node240 	discovery_latency 	3468
scalar Network600.node240 	number_of_desired_resources 	20
scalar Network600.node240 	query_homogenity_rate 	33.333333333333
scalar Network600.node240 	qrecord_time 	8248
scalar Network600.node240 	discovery_resolution_rate 	66.666666666667
scalar Network600.node0 	rate_of_requesters 	1
scalar Network600.node0 	number_of_resources 	33000
scalar Network600.node0 	time_period 	1
scalar Network600.node0 	number_of_messages 	21
scalar Network600.node0 	discovery_latency 	3684
scalar Network600.node0 	number_of_desired_resources 	20
scalar Network600.node0 	query_homogenity_rate 	33.333333333333
scalar Network600.node0 	qrecord_time 	8422
scalar Network600.node0 	discovery_resolution_rate 	66.666666666667
scalar Network600.node440 	rate_of_requesters 	1
scalar Network600.node440 	number_of_resources 	33000
scalar Network600.node440 	time_period 	1
scalar Network600.node440 	number_of_messages 	22
scalar Network600.node440 	discovery_latency 	3696
scalar Network600.node440 	number_of_desired_resources 	20
scalar Network600.node440 	query_homogenity_rate 	33.333333333333
scalar Network600.node440 	qrecord_time 	8428
scalar Network600.node440 	discovery_resolution_rate 	66.666666666667
scalar Network600.node130 	rate_of_requesters 	1
scalar Network600.node130 	number_of_resources 	33000
scalar Network600.node130 	time_period 	1
scalar Network600.node130 	number_of_messages 	182
scalar Network600.node130 	discovery_latency 	3744
scalar Network600.node130 	number_of_desired_resources 	20
scalar Network600.node130 	query_homogenity_rate 	33.333333333333
scalar Network600.node130 	qrecord_time 	8470
scalar Network600.node130 	discovery_resolution_rate 	83.333333333333
scalar Network600.node310 	rate_of_requesters 	1
scalar Network600.node310 	number_of_resources 	33000
scalar Network600.node310 	time_period 	1
scalar Network600.node310 	number_of_messages 	14
scalar Network600.node310 	discovery_latency 	3744
scalar Network600.node310 	number_of_desired_resources 	20
scalar Network600.node310 	query_homogenity_rate 	33.333333333333
scalar Network600.node310 	qrecord_time 	8506
scalar Network600.node310 	discovery_resolution_rate 	66.666666666667
scalar Network600.node150 	rate_of_requesters 	1
scalar Network600.node150 	number_of_resources 	33000
scalar Network600.node150 	time_period 	1
scalar Network600.node150 	number_of_messages 	6
scalar Network600.node150 	discovery_latency 	3864
scalar Network600.node150 	number_of_desired_resources 	20
scalar Network600.node150 	query_homogenity_rate 	33.333333333333
scalar Network600.node150 	qrecord_time 	8644
scalar Network600.node150 	discovery_resolution_rate 	33.333333333333
scalar Network600.node80 	rate_of_requesters 	1
scalar Network600.node80 	number_of_resources 	33000
scalar Network600.node80 	time_period 	1
scalar Network600.node80 	number_of_messages 	5
scalar Network600.node80 	discovery_latency 	3936
scalar Network600.node80 	number_of_desired_resources 	20
scalar Network600.node80 	query_homogenity_rate 	33.333333333333
scalar Network600.node80 	qrecord_time 	8650
scalar Network600.node80 	discovery_resolution_rate 	33.333333333333
scalar Network600.node330 	rate_of_requesters 	1
scalar Network600.node330 	number_of_resources 	33000
scalar Network600.node330 	time_period 	1
scalar Network600.node330 	number_of_messages 	205
scalar Network600.node330 	discovery_latency 	4008
scalar Network600.node330 	number_of_desired_resources 	20
scalar Network600.node330 	query_homogenity_rate 	33.333333333333
scalar Network600.node330 	qrecord_time 	8674
scalar Network600.node330 	discovery_resolution_rate 	83.333333333333
scalar Network600.node70 	rate_of_requesters 	1
scalar Network600.node70 	number_of_resources 	33000
scalar Network600.node70 	time_period 	1
scalar Network600.node70 	number_of_messages 	234
scalar Network600.node70 	discovery_latency 	3984
scalar Network600.node70 	number_of_desired_resources 	20
scalar Network600.node70 	query_homogenity_rate 	33.333333333333
scalar Network600.node70 	qrecord_time 	8680
scalar Network600.node70 	discovery_resolution_rate 	50
scalar Network600.node370 	rate_of_requesters 	1
scalar Network600.node370 	number_of_resources 	33000
scalar Network600.node370 	time_period 	1
scalar Network600.node370 	number_of_messages 	4
scalar Network600.node370 	discovery_latency 	3984
scalar Network600.node370 	number_of_desired_resources 	20
scalar Network600.node370 	query_homogenity_rate 	33.333333333333
scalar Network600.node370 	qrecord_time 	8728
scalar Network600.node370 	discovery_resolution_rate 	33.333333333333
scalar Network600.node10 	rate_of_requesters 	1
scalar Network600.node10 	number_of_resources 	33000
scalar Network600.node10 	time_period 	1
scalar Network600.node10 	number_of_messages 	16
scalar Network600.node10 	discovery_latency 	4050
scalar Network600.node10 	number_of_desired_resources 	20
scalar Network600.node10 	query_homogenity_rate 	33.333333333333
scalar Network600.node10 	qrecord_time 	8740
scalar Network600.node10 	discovery_resolution_rate 	33.333333333333
scalar Network600.node280 	rate_of_requesters 	1
scalar Network600.node280 	number_of_resources 	33000
scalar Network600.node280 	time_period 	1
scalar Network600.node280 	number_of_messages 	171
scalar Network600.node280 	discovery_latency 	3960
scalar Network600.node280 	number_of_desired_resources 	20
scalar Network600.node280 	query_homogenity_rate 	33.333333333333
scalar Network600.node280 	qrecord_time 	8758
scalar Network600.node280 	discovery_resolution_rate 	50
scalar Network600.node290 	rate_of_requesters 	1
scalar Network600.node290 	number_of_resources 	33000
scalar Network600.node290 	time_period 	1
scalar Network600.node290 	number_of_messages 	178
scalar Network600.node290 	discovery_latency 	4092
scalar Network600.node290 	number_of_desired_resources 	20
scalar Network600.node290 	query_homogenity_rate 	33.333333333333
scalar Network600.node290 	qrecord_time 	8758
scalar Network600.node290 	discovery_resolution_rate 	50
scalar Network600.node530 	rate_of_requesters 	1
scalar Network600.node530 	number_of_resources 	33000
scalar Network600.node530 	time_period 	1
scalar Network600.node530 	number_of_messages 	10
scalar Network600.node530 	discovery_latency 	4074
scalar Network600.node530 	number_of_desired_resources 	20
scalar Network600.node530 	query_homogenity_rate 	33.333333333333
scalar Network600.node530 	qrecord_time 	8764
scalar Network600.node530 	discovery_resolution_rate 	33.333333333333
scalar Network600.node480 	rate_of_requesters 	1
scalar Network600.node480 	number_of_resources 	33000
scalar Network600.node480 	time_period 	1
scalar Network600.node480 	number_of_messages 	5
scalar Network600.node480 	discovery_latency 	4044
scalar Network600.node480 	number_of_desired_resources 	20
scalar Network600.node480 	query_homogenity_rate 	33.333333333333
scalar Network600.node480 	qrecord_time 	8776
scalar Network600.node480 	discovery_resolution_rate 	33.333333333333
scalar Network600.node40 	rate_of_requesters 	1
scalar Network600.node40 	number_of_resources 	33000
scalar Network600.node40 	time_period 	1
scalar Network600.node40 	number_of_messages 	7
scalar Network600.node40 	discovery_latency 	4020
scalar Network600.node40 	number_of_desired_resources 	20
scalar Network600.node40 	query_homogenity_rate 	33.333333333333
scalar Network600.node40 	qrecord_time 	8776
scalar Network600.node40 	discovery_resolution_rate 	33.333333333333
scalar Network600.node210 	rate_of_requesters 	1
scalar Network600.node210 	number_of_resources 	33000
scalar Network600.node210 	time_period 	1
scalar Network600.node210 	number_of_messages 	242
scalar Network600.node210 	discovery_latency 	4104
scalar Network600.node210 	number_of_desired_resources 	20
scalar Network600.node210 	query_homogenity_rate 	33.333333333333
scalar Network600.node210 	qrecord_time 	8776
scalar Network600.node210 	discovery_resolution_rate 	50
scalar Network600.node500 	rate_of_requesters 	1
scalar Network600.node500 	number_of_resources 	33000
scalar Network600.node500 	time_period 	1
scalar Network600.node500 	number_of_messages 	0
scalar Network600.node500 	discovery_latency 	4110
scalar Network600.node500 	number_of_desired_resources 	20
scalar Network600.node500 	query_homogenity_rate 	33.333333333333
scalar Network600.node500 	qrecord_time 	8782
scalar Network600.node500 	discovery_resolution_rate 	0
scalar Network600.node160 	rate_of_requesters 	1
scalar Network600.node160 	number_of_resources 	33000
scalar Network600.node160 	time_period 	1
scalar Network600.node160 	number_of_messages 	8
scalar Network600.node160 	discovery_latency 	4086
scalar Network600.node160 	number_of_desired_resources 	20
scalar Network600.node160 	query_homogenity_rate 	33.333333333333
scalar Network600.node160 	qrecord_time 	8800
scalar Network600.node160 	discovery_resolution_rate 	33.333333333333
scalar Network600.node50 	rate_of_requesters 	1
scalar Network600.node50 	number_of_resources 	33000
scalar Network600.node50 	time_period 	1
scalar Network600.node50 	number_of_messages 	36
scalar Network600.node50 	discovery_latency 	4056
scalar Network600.node50 	number_of_desired_resources 	20
scalar Network600.node50 	query_homogenity_rate 	33.333333333333
scalar Network600.node50 	qrecord_time 	8800
scalar Network600.node50 	discovery_resolution_rate 	66.666666666667
scalar Network600.node200 	rate_of_requesters 	1
scalar Network600.node200 	number_of_resources 	33000
scalar Network600.node200 	time_period 	1
scalar Network600.node200 	number_of_messages 	44
scalar Network600.node200 	discovery_latency 	4068
scalar Network600.node200 	number_of_desired_resources 	20
scalar Network600.node200 	query_homogenity_rate 	33.333333333333
scalar Network600.node200 	qrecord_time 	8806
scalar Network600.node200 	discovery_resolution_rate 	66.666666666667
scalar Network600.node520 	rate_of_requesters 	1
scalar Network600.node520 	number_of_resources 	33000
scalar Network600.node520 	time_period 	1
scalar Network600.node520 	number_of_messages 	10
scalar Network600.node520 	discovery_latency 	4110
scalar Network600.node520 	number_of_desired_resources 	20
scalar Network600.node520 	query_homogenity_rate 	33.333333333333
scalar Network600.node520 	qrecord_time 	8806
scalar Network600.node520 	discovery_resolution_rate 	33.333333333333
scalar Network600.node190 	rate_of_requesters 	1
scalar Network600.node190 	number_of_resources 	33000
scalar Network600.node190 	time_period 	1
scalar Network600.node190 	number_of_messages 	21
scalar Network600.node190 	discovery_latency 	4116
scalar Network600.node190 	number_of_desired_resources 	20
scalar Network600.node190 	query_homogenity_rate 	33.333333333333
scalar Network600.node190 	qrecord_time 	8824
scalar Network600.node190 	discovery_resolution_rate 	66.666666666667
scalar Network600.node300 	rate_of_requesters 	1
scalar Network600.node300 	number_of_resources 	33000
scalar Network600.node300 	time_period 	1
scalar Network600.node300 	number_of_messages 	40
scalar Network600.node300 	discovery_latency 	4056
scalar Network600.node300 	number_of_desired_resources 	20
scalar Network600.node300 	query_homogenity_rate 	33.333333333333
scalar Network600.node300 	qrecord_time 	8824
scalar Network600.node300 	discovery_resolution_rate 	33.333333333333
scalar Network600.node570 	rate_of_requesters 	1
scalar Network600.node570 	number_of_resources 	33000
scalar Network600.node570 	time_period 	1
scalar Network600.node570 	number_of_messages 	13
scalar Network600.node570 	discovery_latency 	4164
scalar Network600.node570 	number_of_desired_resources 	20
scalar Network600.node570 	query_homogenity_rate 	33.333333333333
scalar Network600.node570 	qrecord_time 	8830
scalar Network600.node570 	discovery_resolution_rate 	66.666666666667
scalar Network600.node550 	rate_of_requesters 	1
scalar Network600.node550 	number_of_resources 	33000
scalar Network600.node550 	time_period 	1
scalar Network600.node550 	number_of_messages 	2
scalar Network600.node550 	discovery_latency 	4068
scalar Network600.node550 	number_of_desired_resources 	20
scalar Network600.node550 	query_homogenity_rate 	33.333333333333
scalar Network600.node550 	qrecord_time 	8836
scalar Network600.node550 	discovery_resolution_rate 	0
scalar Network600.node360 	rate_of_requesters 	1
scalar Network600.node360 	number_of_resources 	33000
scalar Network600.node360 	time_period 	1
scalar Network600.node360 	number_of_messages 	2
scalar Network600.node360 	discovery_latency 	4074
scalar Network600.node360 	number_of_desired_resources 	20
scalar Network600.node360 	query_homogenity_rate 	33.333333333333
scalar Network600.node360 	qrecord_time 	8836
scalar Network600.node360 	discovery_resolution_rate 	0
scalar Network600.node100 	rate_of_requesters 	1
scalar Network600.node100 	number_of_resources 	33000
scalar Network600.node100 	time_period 	1
scalar Network600.node100 	number_of_messages 	13
scalar Network600.node100 	discovery_latency 	4044
scalar Network600.node100 	number_of_desired_resources 	20
scalar Network600.node100 	query_homogenity_rate 	33.333333333333
scalar Network600.node100 	qrecord_time 	8842
scalar Network600.node100 	discovery_resolution_rate 	33.333333333333
scalar Network600.node430 	rate_of_requesters 	1
scalar Network600.node430 	number_of_resources 	33000
scalar Network600.node430 	time_period 	1
scalar Network600.node430 	number_of_messages 	9
scalar Network600.node430 	discovery_latency 	4110
scalar Network600.node430 	number_of_desired_resources 	20
scalar Network600.node430 	query_homogenity_rate 	33.333333333333
scalar Network600.node430 	qrecord_time 	8848
scalar Network600.node430 	discovery_resolution_rate 	33.333333333333
scalar Network600.node0 	rate_of_requesters 	1
scalar Network600.node0 	number_of_resources 	33000
scalar Network600.node0 	time_period 	2
scalar Network600.node0 	number_of_messages 	8
scalar Network600.node0 	discovery_latency 	4062
scalar Network600.node0 	number_of_desired_resources 	20
scalar Network600.node0 	query_homogenity_rate 	33.333333333333
scalar Network600.node0 	qrecord_time 	8867.993822575
scalar Network600.node0 	discovery_resolution_rate 	33.333333333333
scalar Network600.node420 	rate_of_requesters 	1
scalar Network600.node420 	number_of_resources 	33000
scalar Network600.node420 	time_period 	1
scalar Network600.node420 	number_of_messages 	210
scalar Network600.node420 	discovery_latency 	4140
scalar Network600.node420 	number_of_desired_resources 	20
scalar Network600.node420 	query_homogenity_rate 	33.333333333333
scalar Network600.node420 	qrecord_time 	8878
scalar Network600.node420 	discovery_resolution_rate 	50
scalar Network600.node110 	rate_of_requesters 	1
scalar Network600.node110 	number_of_resources 	33000
scalar Network600.node110 	time_period 	1
scalar Network600.node110 	number_of_messages 	12
scalar Network600.node110 	discovery_latency 	4158
scalar Network600.node110 	number_of_desired_resources 	20
scalar Network600.node110 	query_homogenity_rate 	33.333333333333
scalar Network600.node110 	qrecord_time 	8884
scalar Network600.node110 	discovery_resolution_rate 	33.333333333333
scalar Network600.node580 	rate_of_requesters 	1
scalar Network600.node580 	number_of_resources 	33000
scalar Network600.node580 	time_period 	1
scalar Network600.node580 	number_of_messages 	48
scalar Network600.node580 	discovery_latency 	4140
scalar Network600.node580 	number_of_desired_resources 	20
scalar Network600.node580 	query_homogenity_rate 	33.333333333333
scalar Network600.node580 	qrecord_time 	8890
scalar Network600.node580 	discovery_resolution_rate 	66.666666666667
scalar Network600.node140 	rate_of_requesters 	1
scalar Network600.node140 	number_of_resources 	33000
scalar Network600.node140 	time_period 	1
scalar Network600.node140 	number_of_messages 	2
scalar Network600.node140 	discovery_latency 	4146
scalar Network600.node140 	number_of_desired_resources 	20
scalar Network600.node140 	query_homogenity_rate 	33.333333333333
scalar Network600.node140 	qrecord_time 	8896
scalar Network600.node140 	discovery_resolution_rate 	0
scalar Network600.node450 	rate_of_requesters 	1
scalar Network600.node450 	number_of_resources 	33000
scalar Network600.node450 	time_period 	1
scalar Network600.node450 	number_of_messages 	14
scalar Network600.node450 	discovery_latency 	4128
scalar Network600.node450 	number_of_desired_resources 	20
scalar Network600.node450 	query_homogenity_rate 	33.333333333333
scalar Network600.node450 	qrecord_time 	8896
scalar Network600.node450 	discovery_resolution_rate 	66.666666666667
scalar Network600.node270 	rate_of_requesters 	1
scalar Network600.node270 	number_of_resources 	33000
scalar Network600.node270 	time_period 	1
scalar Network600.node270 	number_of_messages 	200
scalar Network600.node270 	discovery_latency 	4146
scalar Network600.node270 	number_of_desired_resources 	20
scalar Network600.node270 	query_homogenity_rate 	33.333333333333
scalar Network600.node270 	qrecord_time 	8896
scalar Network600.node270 	discovery_resolution_rate 	16.666666666667
scalar Network600.node590 	rate_of_requesters 	1
scalar Network600.node590 	number_of_resources 	33000
scalar Network600.node590 	time_period 	1
scalar Network600.node590 	number_of_messages 	11
scalar Network600.node590 	discovery_latency 	4170
scalar Network600.node590 	number_of_desired_resources 	20
scalar Network600.node590 	query_homogenity_rate 	33.333333333333
scalar Network600.node590 	qrecord_time 	8902
scalar Network600.node590 	discovery_resolution_rate 	33.333333333333
scalar Network600.node400 	rate_of_requesters 	1
scalar Network600.node400 	number_of_resources 	33000
scalar Network600.node400 	time_period 	1
scalar Network600.node400 	number_of_messages 	22
scalar Network600.node400 	discovery_latency 	4176
scalar Network600.node400 	number_of_desired_resources 	20
scalar Network600.node400 	query_homogenity_rate 	33.333333333333
scalar Network600.node400 	qrecord_time 	8902
scalar Network600.node400 	discovery_resolution_rate 	66.666666666667
scalar Network600.node180 	rate_of_requesters 	1
scalar Network600.node180 	number_of_resources 	33000
scalar Network600.node180 	time_period 	1
scalar Network600.node180 	number_of_messages 	45
scalar Network600.node180 	discovery_latency 	4218
scalar Network600.node180 	number_of_desired_resources 	20
scalar Network600.node180 	query_homogenity_rate 	33.333333333333
scalar Network600.node180 	qrecord_time 	8926
scalar Network600.node180 	discovery_resolution_rate 	66.666666666667
scalar Network600.node560 	rate_of_requesters 	1
scalar Network600.node560 	number_of_resources 	33000
scalar Network600.node560 	time_period 	1
scalar Network600.node560 	number_of_messages 	2
scalar Network600.node560 	discovery_latency 	4194
scalar Network600.node560 	number_of_desired_resources 	20
scalar Network600.node560 	query_homogenity_rate 	33.333333333333
scalar Network600.node560 	qrecord_time 	8944
scalar Network600.node560 	discovery_resolution_rate 	0
scalar Network600.node540 	rate_of_requesters 	1
scalar Network600.node540 	number_of_resources 	33000
scalar Network600.node540 	time_period 	1
scalar Network600.node540 	number_of_messages 	42
scalar Network600.node540 	discovery_latency 	4206
scalar Network600.node540 	number_of_desired_resources 	20
scalar Network600.node540 	query_homogenity_rate 	33.333333333333
scalar Network600.node540 	qrecord_time 	8944
scalar Network600.node540 	discovery_resolution_rate 	33.333333333333
scalar Network600.node380 	rate_of_requesters 	1
scalar Network600.node380 	number_of_resources 	33000
scalar Network600.node380 	time_period 	1
scalar Network600.node380 	number_of_messages 	2
scalar Network600.node380 	discovery_latency 	4158
scalar Network600.node380 	number_of_desired_resources 	20
scalar Network600.node380 	query_homogenity_rate 	33.333333333333
scalar Network600.node380 	qrecord_time 	8950
scalar Network600.node380 	discovery_resolution_rate 	0
scalar Network600.node470 	rate_of_requesters 	1
scalar Network600.node470 	number_of_resources 	33000
scalar Network600.node470 	time_period 	1
scalar Network600.node470 	number_of_messages 	2
scalar Network600.node470 	discovery_latency 	4170
scalar Network600.node470 	number_of_desired_resources 	20
scalar Network600.node470 	query_homogenity_rate 	33.333333333333
scalar Network600.node470 	qrecord_time 	8962
scalar Network600.node470 	discovery_resolution_rate 	0
scalar Network600.node350 	rate_of_requesters 	1
scalar Network600.node350 	number_of_resources 	33000
scalar Network600.node350 	time_period 	1
scalar Network600.node350 	number_of_messages 	213
scalar Network600.node350 	discovery_latency 	4206
scalar Network600.node350 	number_of_desired_resources 	20
scalar Network600.node350 	query_homogenity_rate 	33.333333333333
scalar Network600.node350 	qrecord_time 	8968
scalar Network600.node350 	discovery_resolution_rate 	50
scalar Network600.node510 	rate_of_requesters 	1
scalar Network600.node510 	number_of_resources 	33000
scalar Network600.node510 	time_period 	1
scalar Network600.node510 	number_of_messages 	2
scalar Network600.node510 	discovery_latency 	4242
scalar Network600.node510 	number_of_desired_resources 	20
scalar Network600.node510 	query_homogenity_rate 	33.333333333333
scalar Network600.node510 	qrecord_time 	8998
scalar Network600.node510 	discovery_resolution_rate 	0
scalar Network600.node170 	rate_of_requesters 	1
scalar Network600.node170 	number_of_resources 	33000
scalar Network600.node170 	time_period 	1
scalar Network600.node170 	number_of_messages 	2
scalar Network600.node170 	discovery_latency 	4182
scalar Network600.node170 	number_of_desired_resources 	20
scalar Network600.node170 	query_homogenity_rate 	33.333333333333
scalar Network600.node170 	qrecord_time 	8998
scalar Network600.node170 	discovery_resolution_rate 	0
scalar Network600.node460 	rate_of_requesters 	1
scalar Network600.node460 	number_of_resources 	33000
scalar Network600.node460 	time_period 	1
scalar Network600.node460 	number_of_messages 	23
scalar Network600.node460 	discovery_latency 	4278
scalar Network600.node460 	number_of_desired_resources 	20
scalar Network600.node460 	query_homogenity_rate 	33.333333333333
scalar Network600.node460 	qrecord_time 	9004
scalar Network600.node460 	discovery_resolution_rate 	33.333333333333
scalar Network600.node30 	rate_of_requesters 	1
scalar Network600.node30 	number_of_resources 	33000
scalar Network600.node30 	time_period 	1
scalar Network600.node30 	number_of_messages 	15
scalar Network600.node30 	discovery_latency 	4314
scalar Network600.node30 	number_of_desired_resources 	20
scalar Network600.node30 	query_homogenity_rate 	33.333333333333
scalar Network600.node30 	qrecord_time 	9022
scalar Network600.node30 	discovery_resolution_rate 	33.333333333333
scalar Network600.node410 	rate_of_requesters 	1
scalar Network600.node410 	number_of_resources 	33000
scalar Network600.node410 	time_period 	1
scalar Network600.node410 	number_of_messages 	4
scalar Network600.node410 	discovery_latency 	4230
scalar Network600.node410 	number_of_desired_resources 	20
scalar Network600.node410 	query_homogenity_rate 	33.333333333333
scalar Network600.node410 	qrecord_time 	9022
scalar Network600.node410 	discovery_resolution_rate 	33.333333333333
scalar Network600.node250 	rate_of_requesters 	1
scalar Network600.node250 	number_of_resources 	33000
scalar Network600.node250 	time_period 	1
scalar Network600.node250 	number_of_messages 	19
scalar Network600.node250 	discovery_latency 	4278
scalar Network600.node250 	number_of_desired_resources 	20
scalar Network600.node250 	query_homogenity_rate 	33.333333333333
scalar Network600.node250 	qrecord_time 	9028
scalar Network600.node250 	discovery_resolution_rate 	66.666666666667
scalar Network600.node90 	rate_of_requesters 	1
scalar Network600.node90 	number_of_resources 	33000
scalar Network600.node90 	time_period 	1
scalar Network600.node90 	number_of_messages 	2
scalar Network600.node90 	discovery_latency 	4278
scalar Network600.node90 	number_of_desired_resources 	20
scalar Network600.node90 	query_homogenity_rate 	33.333333333333
scalar Network600.node90 	qrecord_time 	9028
scalar Network600.node90 	discovery_resolution_rate 	0
scalar Network600.node260 	rate_of_requesters 	1
scalar Network600.node260 	number_of_resources 	33000
scalar Network600.node260 	time_period 	1
scalar Network600.node260 	number_of_messages 	2
scalar Network600.node260 	discovery_latency 	4176
scalar Network600.node260 	number_of_desired_resources 	20
scalar Network600.node260 	query_homogenity_rate 	33.333333333333
scalar Network600.node260 	qrecord_time 	9028
scalar Network600.node260 	discovery_resolution_rate 	0
scalar Network600.node390 	rate_of_requesters 	1
scalar Network600.node390 	number_of_resources 	33000
scalar Network600.node390 	time_period 	1
scalar Network600.node390 	number_of_messages 	2
scalar Network600.node390 	discovery_latency 	4230
scalar Network600.node390 	number_of_desired_resources 	20
scalar Network600.node390 	query_homogenity_rate 	33.333333333333
scalar Network600.node390 	qrecord_time 	9046
scalar Network600.node390 	discovery_resolution_rate 	0
scalar Network600.node60 	rate_of_requesters 	1
scalar Network600.node60 	number_of_resources 	33000
scalar Network600.node60 	time_period 	1
scalar Network600.node60 	number_of_messages 	5
scalar Network600.node60 	discovery_latency 	4320
scalar Network600.node60 	number_of_desired_resources 	20
scalar Network600.node60 	query_homogenity_rate 	33.333333333333
scalar Network600.node60 	qrecord_time 	9052
scalar Network600.node60 	discovery_resolution_rate 	33.333333333333
scalar Network600.node320 	rate_of_requesters 	1
scalar Network600.node320 	number_of_resources 	33000
scalar Network600.node320 	time_period 	1
scalar Network600.node320 	number_of_messages 	2
scalar Network600.node320 	discovery_latency 	4278
scalar Network600.node320 	number_of_desired_resources 	20
scalar Network600.node320 	query_homogenity_rate 	33.333333333333
scalar Network600.node320 	qrecord_time 	9070
scalar Network600.node320 	discovery_resolution_rate 	0
scalar Network600.node340 	rate_of_requesters 	1
scalar Network600.node340 	number_of_resources 	33000
scalar Network600.node340 	time_period 	1
scalar Network600.node340 	number_of_messages 	0
scalar Network600.node340 	discovery_latency 	4386
scalar Network600.node340 	number_of_desired_resources 	20
scalar Network600.node340 	query_homogenity_rate 	33.333333333333
scalar Network600.node340 	qrecord_time 	9106
scalar Network600.node340 	discovery_resolution_rate 	0
scalar Network600.node520 	rate_of_requesters 	1
scalar Network600.node520 	number_of_resources 	33000
scalar Network600.node520 	time_period 	2
scalar Network600.node520 	number_of_messages 	39
scalar Network600.node520 	discovery_latency 	4266
scalar Network600.node520 	number_of_desired_resources 	20
scalar Network600.node520 	query_homogenity_rate 	33.333333333333
scalar Network600.node520 	qrecord_time 	9114.087444375
scalar Network600.node520 	discovery_resolution_rate 	33.333333333333
scalar Network600.node230 	rate_of_requesters 	1
scalar Network600.node230 	number_of_resources 	33000
scalar Network600.node230 	time_period 	1
scalar Network600.node230 	number_of_messages 	0
scalar Network600.node230 	discovery_latency 	4350
scalar Network600.node230 	number_of_desired_resources 	20
scalar Network600.node230 	query_homogenity_rate 	33.333333333333
scalar Network600.node230 	qrecord_time 	9142
scalar Network600.node230 	discovery_resolution_rate 	0
scalar Network600.node530 	rate_of_requesters 	1
scalar Network600.node530 	number_of_resources 	33000
scalar Network600.node530 	time_period 	2
scalar Network600.node530 	number_of_messages 	2
scalar Network600.node530 	discovery_latency 	4326
scalar Network600.node530 	number_of_desired_resources 	20
scalar Network600.node530 	query_homogenity_rate 	33.333333333333
scalar Network600.node530 	qrecord_time 	9168.159821215
scalar Network600.node530 	discovery_resolution_rate 	0
scalar Network600.node590 	rate_of_requesters 	1
scalar Network600.node590 	number_of_resources 	33000
scalar Network600.node590 	time_period 	2
scalar Network600.node590 	number_of_messages 	2
scalar Network600.node590 	discovery_latency 	4218
scalar Network600.node590 	number_of_desired_resources 	20
scalar Network600.node590 	query_homogenity_rate 	33.333333333333
scalar Network600.node590 	qrecord_time 	9384.484565481
scalar Network600.node590 	discovery_resolution_rate 	0
scalar Network600.node70 	rate_of_requesters 	1
scalar Network600.node70 	number_of_resources 	33000
scalar Network600.node70 	time_period 	2
scalar Network600.node70 	number_of_messages 	0
scalar Network600.node70 	discovery_latency 	4230
scalar Network600.node70 	number_of_desired_resources 	20
scalar Network600.node70 	query_homogenity_rate 	33.333333333333
scalar Network600.node70 	qrecord_time 	9411.154098247
scalar Network600.node70 	discovery_resolution_rate 	0
scalar Network600.node420 	rate_of_requesters 	1
scalar Network600.node420 	number_of_resources 	33000
scalar Network600.node420 	time_period 	2
scalar Network600.node420 	number_of_messages 	2
scalar Network600.node420 	discovery_latency 	4170
scalar Network600.node420 	number_of_desired_resources 	20
scalar Network600.node420 	query_homogenity_rate 	33.333333333333
scalar Network600.node420 	qrecord_time 	9417.187023755
scalar Network600.node420 	discovery_resolution_rate 	0
scalar Network600.node540 	rate_of_requesters 	1
scalar Network600.node540 	number_of_resources 	33000
scalar Network600.node540 	time_period 	2
scalar Network600.node540 	number_of_messages 	2
scalar Network600.node540 	discovery_latency 	4206
scalar Network600.node540 	number_of_desired_resources 	20
scalar Network600.node540 	query_homogenity_rate 	33.333333333333
scalar Network600.node540 	qrecord_time 	9455.482285537
scalar Network600.node540 	discovery_resolution_rate 	0
scalar Network600.node60 	rate_of_requesters 	1
scalar Network600.node60 	number_of_resources 	33000
scalar Network600.node60 	time_period 	2
scalar Network600.node60 	number_of_messages 	2
scalar Network600.node60 	discovery_latency 	4218
scalar Network600.node60 	number_of_desired_resources 	20
scalar Network600.node60 	query_homogenity_rate 	33.333333333333
scalar Network600.node60 	qrecord_time 	9585.041276515
scalar Network600.node60 	discovery_resolution_rate 	0
scalar Network600.node570 	rate_of_requesters 	1
scalar Network600.node570 	number_of_resources 	33000
scalar Network600.node570 	time_period 	2
scalar Network600.node570 	number_of_messages 	2
scalar Network600.node570 	discovery_latency 	4146
scalar Network600.node570 	number_of_desired_resources 	20
scalar Network600.node570 	query_homogenity_rate 	33.333333333333
scalar Network600.node570 	qrecord_time 	9621.083831848
scalar Network600.node570 	discovery_resolution_rate 	0
scalar Network600.node540 	rate_of_requesters 	1
scalar Network600.node540 	number_of_resources 	33000
scalar Network600.node540 	time_period 	3
scalar Network600.node540 	number_of_messages 	2
scalar Network600.node540 	discovery_latency 	4266
scalar Network600.node540 	number_of_desired_resources 	20
scalar Network600.node540 	query_homogenity_rate 	33.333333333333
scalar Network600.node540 	qrecord_time 	9891.109859173
scalar Network600.node540 	discovery_resolution_rate 	0
scalar Network600.node520 	rate_of_requesters 	1
scalar Network600.node520 	number_of_resources 	33000
scalar Network600.node520 	time_period 	3
scalar Network600.node520 	number_of_messages 	0
scalar Network600.node520 	discovery_latency 	4338
scalar Network600.node520 	number_of_desired_resources 	20
scalar Network600.node520 	query_homogenity_rate 	33.333333333333
scalar Network600.node520 	qrecord_time 	9915.562092231
scalar Network600.node520 	discovery_resolution_rate 	0
scalar Network600.node180 	rate_of_requesters 	1
scalar Network600.node180 	number_of_resources 	33000
scalar Network600.node180 	time_period 	2
scalar Network600.node180 	number_of_messages 	2
scalar Network600.node180 	discovery_latency 	4278
scalar Network600.node180 	number_of_desired_resources 	20
scalar Network600.node180 	query_homogenity_rate 	33.333333333333
scalar Network600.node180 	qrecord_time 	10127.313523293
scalar Network600.node180 	discovery_resolution_rate 	0
scalar Network600.node540 	rate_of_requesters 	1
scalar Network600.node540 	number_of_resources 	33000
scalar Network600.node540 	time_period 	5
scalar Network600.node540 	number_of_messages 	2
scalar Network600.node540 	discovery_latency 	4266
scalar Network600.node540 	number_of_desired_resources 	20
scalar Network600.node540 	query_homogenity_rate 	33.333333333333
scalar Network600.node540 	qrecord_time 	10149.479090142
scalar Network600.node540 	discovery_resolution_rate 	0
scalar Network600.node430 	rate_of_requesters 	1
scalar Network600.node430 	number_of_resources 	33000
scalar Network600.node430 	time_period 	2
scalar Network600.node430 	number_of_messages 	2
scalar Network600.node430 	discovery_latency 	4278
scalar Network600.node430 	number_of_desired_resources 	20
scalar Network600.node430 	query_homogenity_rate 	33.333333333333
scalar Network600.node430 	qrecord_time 	10201.937201382
scalar Network600.node430 	discovery_resolution_rate 	0
scalar Network600.node560 	rate_of_requesters 	1
scalar Network600.node560 	number_of_resources 	33000
scalar Network600.node560 	time_period 	2
scalar Network600.node560 	number_of_messages 	2
scalar Network600.node560 	discovery_latency 	4326
scalar Network600.node560 	number_of_desired_resources 	20
scalar Network600.node560 	query_homogenity_rate 	33.333333333333
scalar Network600.node560 	qrecord_time 	10203.969287855
scalar Network600.node560 	discovery_resolution_rate 	0
scalar Network600.node540 	rate_of_requesters 	1
scalar Network600.node540 	number_of_resources 	33000
scalar Network600.node540 	time_period 	4
scalar Network600.node540 	number_of_messages 	2
scalar Network600.node540 	discovery_latency 	4338
scalar Network600.node540 	number_of_desired_resources 	20
scalar Network600.node540 	query_homogenity_rate 	33.333333333333
scalar Network600.node540 	qrecord_time 	10206.876257487
scalar Network600.node540 	discovery_resolution_rate 	0
scalar Network600.node230 	rate_of_requesters 	1
scalar Network600.node230 	number_of_resources 	33000
scalar Network600.node230 	time_period 	2
scalar Network600.node230 	number_of_messages 	0
scalar Network600.node230 	discovery_latency 	4194
scalar Network600.node230 	number_of_desired_resources 	20
scalar Network600.node230 	query_homogenity_rate 	33.333333333333
scalar Network600.node230 	qrecord_time 	10217.137985765
scalar Network600.node230 	discovery_resolution_rate 	0
scalar Network600.node440 	rate_of_requesters 	1
scalar Network600.node440 	number_of_resources 	33000
scalar Network600.node440 	time_period 	2
scalar Network600.node440 	number_of_messages 	2
scalar Network600.node440 	discovery_latency 	4350
scalar Network600.node440 	number_of_desired_resources 	20
scalar Network600.node440 	query_homogenity_rate 	33.333333333333
scalar Network600.node440 	qrecord_time 	10227.146194499
scalar Network600.node440 	discovery_resolution_rate 	0
scalar Network600.node480 	rate_of_requesters 	1
scalar Network600.node480 	number_of_resources 	33000
scalar Network600.node480 	time_period 	2
scalar Network600.node480 	number_of_messages 	2
scalar Network600.node480 	discovery_latency 	4338
scalar Network600.node480 	number_of_desired_resources 	20
scalar Network600.node480 	query_homogenity_rate 	33.333333333333
scalar Network600.node480 	qrecord_time 	10240.244831015
scalar Network600.node480 	discovery_resolution_rate 	0
scalar Network600.node530 	rate_of_requesters 	1
scalar Network600.node530 	number_of_resources 	33000
scalar Network600.node530 	time_period 	3
scalar Network600.node530 	number_of_messages 	2
scalar Network600.node530 	discovery_latency 	4290
scalar Network600.node530 	number_of_desired_resources 	20
scalar Network600.node530 	query_homogenity_rate 	33.333333333333
scalar Network600.node530 	qrecord_time 	10324.082226143
scalar Network600.node530 	discovery_resolution_rate 	0
scalar Network600.node460 	rate_of_requesters 	1
scalar Network600.node460 	number_of_resources 	33000
scalar Network600.node460 	time_period 	2
scalar Network600.node460 	number_of_messages 	2
scalar Network600.node460 	discovery_latency 	4158
scalar Network600.node460 	number_of_desired_resources 	20
scalar Network600.node460 	query_homogenity_rate 	33.333333333333
scalar Network600.node460 	qrecord_time 	10350.378662989
scalar Network600.node460 	discovery_resolution_rate 	0
scalar Network600.node220 	rate_of_requesters 	1
scalar Network600.node220 	number_of_resources 	33000
scalar Network600.node220 	time_period 	2
scalar Network600.node220 	number_of_messages 	2
scalar Network600.node220 	discovery_latency 	4182
scalar Network600.node220 	number_of_desired_resources 	20
scalar Network600.node220 	query_homogenity_rate 	33.333333333333
scalar Network600.node220 	qrecord_time 	10474.426830202
scalar Network600.node220 	discovery_resolution_rate 	0
scalar Network600.node510 	rate_of_requesters 	1
scalar Network600.node510 	number_of_resources 	33000
scalar Network600.node510 	time_period 	2
scalar Network600.node510 	number_of_messages 	2
scalar Network600.node510 	discovery_latency 	4152
scalar Network600.node510 	number_of_desired_resources 	20
scalar Network600.node510 	query_homogenity_rate 	33.333333333333
scalar Network600.node510 	qrecord_time 	10513.272301704
scalar Network600.node510 	discovery_resolution_rate 	0
scalar Network600.node50 	rate_of_requesters 	1
scalar Network600.node50 	number_of_resources 	33000
scalar Network600.node50 	time_period 	2
scalar Network600.node50 	number_of_messages 	0
scalar Network600.node50 	discovery_latency 	4230
scalar Network600.node50 	number_of_desired_resources 	20
scalar Network600.node50 	query_homogenity_rate 	33.333333333333
scalar Network600.node50 	qrecord_time 	10515.272357156
scalar Network600.node50 	discovery_resolution_rate 	0
scalar Network600.node40 	rate_of_requesters 	1
scalar Network600.node40 	number_of_resources 	33000
scalar Network600.node40 	time_period 	2
scalar Network600.node40 	number_of_messages 	2
scalar Network600.node40 	discovery_latency 	4230
scalar Network600.node40 	number_of_desired_resources 	20
scalar Network600.node40 	query_homogenity_rate 	33.333333333333
scalar Network600.node40 	qrecord_time 	10591.8822987
scalar Network600.node40 	discovery_resolution_rate 	0
scalar Network600.node120 	rate_of_requesters 	1
scalar Network600.node120 	number_of_resources 	33000
scalar Network600.node120 	time_period 	2
scalar Network600.node120 	number_of_messages 	2
scalar Network600.node120 	discovery_latency 	4290
scalar Network600.node120 	number_of_desired_resources 	20
scalar Network600.node120 	query_homogenity_rate 	33.333333333333
scalar Network600.node120 	qrecord_time 	10645.162261881
scalar Network600.node120 	discovery_resolution_rate 	0
scalar Network600.node450 	rate_of_requesters 	1
scalar Network600.node450 	number_of_resources 	33000
scalar Network600.node450 	time_period 	2
scalar Network600.node450 	number_of_messages 	2
scalar Network600.node450 	discovery_latency 	4338
scalar Network600.node450 	number_of_desired_resources 	20
scalar Network600.node450 	query_homogenity_rate 	33.333333333333
scalar Network600.node450 	qrecord_time 	10707.425412601
scalar Network600.node450 	discovery_resolution_rate 	0
scalar Network600.node90 	rate_of_requesters 	1
scalar Network600.node90 	number_of_resources 	33000
scalar Network600.node90 	time_period 	2
scalar Network600.node90 	number_of_messages 	2
scalar Network600.node90 	discovery_latency 	4344
scalar Network600.node90 	number_of_desired_resources 	20
scalar Network600.node90 	query_homogenity_rate 	33.333333333333
scalar Network600.node90 	qrecord_time 	10709.928132774
scalar Network600.node90 	discovery_resolution_rate 	0
scalar Network600.node470 	rate_of_requesters 	1
scalar Network600.node470 	number_of_resources 	33000
scalar Network600.node470 	time_period 	2
scalar Network600.node470 	number_of_messages 	2
scalar Network600.node470 	discovery_latency 	4374
scalar Network600.node470 	number_of_desired_resources 	20
scalar Network600.node470 	query_homogenity_rate 	33.333333333333
scalar Network600.node470 	qrecord_time 	11026.948842703
scalar Network600.node470 	discovery_resolution_rate 	0
scalar Network600.node350 	rate_of_requesters 	1
scalar Network600.node350 	number_of_resources 	33000
scalar Network600.node350 	time_period 	2
scalar Network600.node350 	number_of_messages 	2
scalar Network600.node350 	discovery_latency 	4290
scalar Network600.node350 	number_of_desired_resources 	20
scalar Network600.node350 	query_homogenity_rate 	33.333333333333
scalar Network600.node350 	qrecord_time 	11138.997097822
scalar Network600.node350 	discovery_resolution_rate 	0
scalar Network600.node590 	rate_of_requesters 	1
scalar Network600.node590 	number_of_resources 	33000
scalar Network600.node590 	time_period 	3
scalar Network600.node590 	number_of_messages 	2
scalar Network600.node590 	discovery_latency 	4362
scalar Network600.node590 	number_of_desired_resources 	20
scalar Network600.node590 	query_homogenity_rate 	33.333333333333
scalar Network600.node590 	qrecord_time 	11174.553197267
scalar Network600.node590 	discovery_resolution_rate 	0
scalar Network600.node560 	rate_of_requesters 	1
scalar Network600.node560 	number_of_resources 	33000
scalar Network600.node560 	time_period 	3
scalar Network600.node560 	number_of_messages 	2
scalar Network600.node560 	discovery_latency 	4254
scalar Network600.node560 	number_of_desired_resources 	20
scalar Network600.node560 	query_homogenity_rate 	33.333333333333
scalar Network600.node560 	qrecord_time 	11212.487325315
scalar Network600.node560 	discovery_resolution_rate 	0
scalar Network600.node100 	rate_of_requesters 	1
scalar Network600.node100 	number_of_resources 	33000
scalar Network600.node100 	time_period 	2
scalar Network600.node100 	number_of_messages 	2
scalar Network600.node100 	discovery_latency 	4326
scalar Network600.node100 	number_of_desired_resources 	20
scalar Network600.node100 	query_homogenity_rate 	33.333333333333
scalar Network600.node100 	qrecord_time 	11224.692469852
scalar Network600.node100 	discovery_resolution_rate 	0
scalar Network600.node30 	rate_of_requesters 	1
scalar Network600.node30 	number_of_resources 	33000
scalar Network600.node30 	time_period 	2
scalar Network600.node30 	number_of_messages 	2
scalar Network600.node30 	discovery_latency 	4458
scalar Network600.node30 	number_of_desired_resources 	20
scalar Network600.node30 	query_homogenity_rate 	33.333333333333
scalar Network600.node30 	qrecord_time 	11330.45072715
scalar Network600.node30 	discovery_resolution_rate 	0
scalar Network600.node320 	rate_of_requesters 	1
scalar Network600.node320 	number_of_resources 	33000
scalar Network600.node320 	time_period 	2
scalar Network600.node320 	number_of_messages 	2
scalar Network600.node320 	discovery_latency 	4326
scalar Network600.node320 	number_of_desired_resources 	20
scalar Network600.node320 	query_homogenity_rate 	33.333333333333
scalar Network600.node320 	qrecord_time 	11426.787017376
scalar Network600.node320 	discovery_resolution_rate 	0
scalar Network600.node160 	rate_of_requesters 	1
scalar Network600.node160 	number_of_resources 	33000
scalar Network600.node160 	time_period 	2
scalar Network600.node160 	number_of_messages 	2
scalar Network600.node160 	discovery_latency 	4308
scalar Network600.node160 	number_of_desired_resources 	20
scalar Network600.node160 	query_homogenity_rate 	33.333333333333
scalar Network600.node160 	qrecord_time 	11428.839646157
scalar Network600.node160 	discovery_resolution_rate 	0
scalar Network600.node280 	rate_of_requesters 	1
scalar Network600.node280 	number_of_resources 	33000
scalar Network600.node280 	time_period 	2
scalar Network600.node280 	number_of_messages 	2
scalar Network600.node280 	discovery_latency 	4302
scalar Network600.node280 	number_of_desired_resources 	20
scalar Network600.node280 	query_homogenity_rate 	33.333333333333
scalar Network600.node280 	qrecord_time 	11451.845328782
scalar Network600.node280 	discovery_resolution_rate 	0
scalar Network600.node460 	rate_of_requesters 	1
scalar Network600.node460 	number_of_resources 	33000
scalar Network600.node460 	time_period 	3
scalar Network600.node460 	number_of_messages 	2
scalar Network600.node460 	discovery_latency 	4290
scalar Network600.node460 	number_of_desired_resources 	20
scalar Network600.node460 	query_homogenity_rate 	33.333333333333
scalar Network600.node460 	qrecord_time 	11530.011159054
scalar Network600.node460 	discovery_resolution_rate 	0
scalar Network600.node230 	rate_of_requesters 	1
scalar Network600.node230 	number_of_resources 	33000
scalar Network600.node230 	time_period 	3
scalar Network600.node230 	number_of_messages 	0
scalar Network600.node230 	discovery_latency 	4350
scalar Network600.node230 	number_of_desired_resources 	20
scalar Network600.node230 	query_homogenity_rate 	33.333333333333
scalar Network600.node230 	qrecord_time 	11531.92895167
scalar Network600.node230 	discovery_resolution_rate 	0
scalar Network600.node80 	rate_of_requesters 	1
scalar Network600.node80 	number_of_resources 	33000
scalar Network600.node80 	time_period 	2
scalar Network600.node80 	number_of_messages 	39
scalar Network600.node80 	discovery_latency 	4188
scalar Network600.node80 	number_of_desired_resources 	20
scalar Network600.node80 	query_homogenity_rate 	33.333333333333
scalar Network600.node80 	qrecord_time 	11564.706936688
scalar Network600.node80 	discovery_resolution_rate 	33.333333333333
scalar Network600.node140 	rate_of_requesters 	1
scalar Network600.node140 	number_of_resources 	33000
scalar Network600.node140 	time_period 	2
scalar Network600.node140 	number_of_messages 	2
scalar Network600.node140 	discovery_latency 	4362
scalar Network600.node140 	number_of_desired_resources 	20
scalar Network600.node140 	query_homogenity_rate 	33.333333333333
scalar Network600.node140 	qrecord_time 	11585.740265179
scalar Network600.node140 	discovery_resolution_rate 	0
scalar Network600.node30 	rate_of_requesters 	1
scalar Network600.node30 	number_of_resources 	33000
scalar Network600.node30 	time_period 	3
scalar Network600.node30 	number_of_messages 	2
scalar Network600.node30 	discovery_latency 	4242
scalar Network600.node30 	number_of_desired_resources 	20
scalar Network600.node30 	query_homogenity_rate 	33.333333333333
scalar Network600.node30 	qrecord_time 	11635.622658528
scalar Network600.node30 	discovery_resolution_rate 	0
scalar Network600.node50 	rate_of_requesters 	1
scalar Network600.node50 	number_of_resources 	33000
scalar Network600.node50 	time_period 	3
scalar Network600.node50 	number_of_messages 	0
scalar Network600.node50 	discovery_latency 	4386
scalar Network600.node50 	number_of_desired_resources 	20
scalar Network600.node50 	query_homogenity_rate 	33.333333333333
scalar Network600.node50 	qrecord_time 	11719.71775915
scalar Network600.node50 	discovery_resolution_rate 	0
scalar Network600.node110 	rate_of_requesters 	1
scalar Network600.node110 	number_of_resources 	33000
scalar Network600.node110 	time_period 	2
scalar Network600.node110 	number_of_messages 	2
scalar Network600.node110 	discovery_latency 	4422
scalar Network600.node110 	number_of_desired_resources 	20
scalar Network600.node110 	query_homogenity_rate 	33.333333333333
scalar Network600.node110 	qrecord_time 	11910.038908147
scalar Network600.node110 	discovery_resolution_rate 	0
scalar Network600.node110 	rate_of_requesters 	1
scalar Network600.node110 	number_of_resources 	33000
scalar Network600.node110 	time_period 	3
scalar Network600.node110 	number_of_messages 	2
scalar Network600.node110 	discovery_latency 	4146
scalar Network600.node110 	number_of_desired_resources 	20
scalar Network600.node110 	query_homogenity_rate 	33.333333333333
scalar Network600.node110 	qrecord_time 	11922.345017765
scalar Network600.node110 	discovery_resolution_rate 	0
scalar Network600.node440 	rate_of_requesters 	1
scalar Network600.node440 	number_of_resources 	33000
scalar Network600.node440 	time_period 	3
scalar Network600.node440 	number_of_messages 	67
scalar Network600.node440 	discovery_latency 	912
scalar Network600.node440 	number_of_desired_resources 	20
scalar Network600.node440 	query_homogenity_rate 	33.333333333333
scalar Network600.node440 	qrecord_time 	11969.01407179
scalar Network600.node440 	discovery_resolution_rate 	100
scalar Network600.node180 	rate_of_requesters 	1
scalar Network600.node180 	number_of_resources 	33000
scalar Network600.node180 	time_period 	3
scalar Network600.node180 	number_of_messages 	2
scalar Network600.node180 	discovery_latency 	4350
scalar Network600.node180 	number_of_desired_resources 	20
scalar Network600.node180 	query_homogenity_rate 	33.333333333333
scalar Network600.node180 	qrecord_time 	12007.80726506
scalar Network600.node180 	discovery_resolution_rate 	0
scalar Network600.node580 	rate_of_requesters 	1
scalar Network600.node580 	number_of_resources 	33000
scalar Network600.node580 	time_period 	2
scalar Network600.node580 	number_of_messages 	37
scalar Network600.node580 	discovery_latency 	4470
scalar Network600.node580 	number_of_desired_resources 	20
scalar Network600.node580 	query_homogenity_rate 	33.333333333333
scalar Network600.node580 	qrecord_time 	12038.946899367
scalar Network600.node580 	discovery_resolution_rate 	33.333333333333
scalar Network600.node320 	rate_of_requesters 	1
scalar Network600.node320 	number_of_resources 	33000
scalar Network600.node320 	time_period 	3
scalar Network600.node320 	number_of_messages 	113
scalar Network600.node320 	discovery_latency 	834
scalar Network600.node320 	number_of_desired_resources 	20
scalar Network600.node320 	query_homogenity_rate 	33.333333333333
scalar Network600.node320 	qrecord_time 	12060.991634452
scalar Network600.node320 	discovery_resolution_rate 	100
scalar Network600.node590 	rate_of_requesters 	1
scalar Network600.node590 	number_of_resources 	33000
scalar Network600.node590 	time_period 	4
scalar Network600.node590 	number_of_messages 	2
scalar Network600.node590 	discovery_latency 	4326
scalar Network600.node590 	number_of_desired_resources 	20
scalar Network600.node590 	query_homogenity_rate 	33.333333333333
scalar Network600.node590 	qrecord_time 	12121.157555407
scalar Network600.node590 	discovery_resolution_rate 	0
scalar Network600.node0 	rate_of_requesters 	1
scalar Network600.node0 	number_of_resources 	33000
scalar Network600.node0 	time_period 	3
scalar Network600.node0 	number_of_messages 	2
scalar Network600.node0 	discovery_latency 	4278
scalar Network600.node0 	number_of_desired_resources 	20
scalar Network600.node0 	query_homogenity_rate 	33.333333333333
scalar Network600.node0 	qrecord_time 	12337.178573951
scalar Network600.node0 	discovery_resolution_rate 	0
scalar Network600.node50 	rate_of_requesters 	1
scalar Network600.node50 	number_of_resources 	33000
scalar Network600.node50 	time_period 	4
scalar Network600.node50 	number_of_messages 	105
scalar Network600.node50 	discovery_latency 	990
scalar Network600.node50 	number_of_desired_resources 	20
scalar Network600.node50 	query_homogenity_rate 	33.333333333333
scalar Network600.node50 	qrecord_time 	12353.9534988
scalar Network600.node50 	discovery_resolution_rate 	100
scalar Network600.node370 	rate_of_requesters 	1
scalar Network600.node370 	number_of_resources 	33000
scalar Network600.node370 	time_period 	2
scalar Network600.node370 	number_of_messages 	2
scalar Network600.node370 	discovery_latency 	4350
scalar Network600.node370 	number_of_desired_resources 	20
scalar Network600.node370 	query_homogenity_rate 	33.333333333333
scalar Network600.node370 	qrecord_time 	12395.376964508
scalar Network600.node370 	discovery_resolution_rate 	33.333333333333
scalar Network600.node490 	rate_of_requesters 	1
scalar Network600.node490 	number_of_resources 	33000
scalar Network600.node490 	time_period 	2
scalar Network600.node490 	number_of_messages 	2
scalar Network600.node490 	discovery_latency 	4434
scalar Network600.node490 	number_of_desired_resources 	20
scalar Network600.node490 	query_homogenity_rate 	33.333333333333
scalar Network600.node490 	qrecord_time 	12467.868616593
scalar Network600.node490 	discovery_resolution_rate 	0
scalar Network600.node470 	rate_of_requesters 	1
scalar Network600.node470 	number_of_resources 	33000
scalar Network600.node470 	time_period 	3
scalar Network600.node470 	number_of_messages 	32
scalar Network600.node470 	discovery_latency 	4044
scalar Network600.node470 	number_of_desired_resources 	20
scalar Network600.node470 	query_homogenity_rate 	33.333333333333
scalar Network600.node470 	qrecord_time 	12558.95800291
scalar Network600.node470 	discovery_resolution_rate 	66.666666666667
scalar Network600.node260 	rate_of_requesters 	1
scalar Network600.node260 	number_of_resources 	33000
scalar Network600.node260 	time_period 	2
scalar Network600.node260 	number_of_messages 	31
scalar Network600.node260 	discovery_latency 	4266
scalar Network600.node260 	number_of_desired_resources 	20
scalar Network600.node260 	query_homogenity_rate 	33.333333333333
scalar Network600.node260 	qrecord_time 	12756.566537847
scalar Network600.node260 	discovery_resolution_rate 	33.333333333333
scalar Network600.node250 	rate_of_requesters 	1
scalar Network600.node250 	number_of_resources 	33000
scalar Network600.node250 	time_period 	2
scalar Network600.node250 	number_of_messages 	2
scalar Network600.node250 	discovery_latency 	4278
scalar Network600.node250 	number_of_desired_resources 	20
scalar Network600.node250 	query_homogenity_rate 	33.333333333333
scalar Network600.node250 	qrecord_time 	12772.298284125
scalar Network600.node250 	discovery_resolution_rate 	0
scalar Network600.node110 	rate_of_requesters 	1
scalar Network600.node110 	number_of_resources 	33000
scalar Network600.node110 	time_period 	4
scalar Network600.node110 	number_of_messages 	2
scalar Network600.node110 	discovery_latency 	4350
scalar Network600.node110 	number_of_desired_resources 	20
scalar Network600.node110 	query_homogenity_rate 	33.333333333333
scalar Network600.node110 	qrecord_time 	12961.487190623
scalar Network600.node110 	discovery_resolution_rate 	0
scalar Network600.node190 	rate_of_requesters 	1
scalar Network600.node190 	number_of_resources 	33000
scalar Network600.node190 	time_period 	2
scalar Network600.node190 	number_of_messages 	2
scalar Network600.node190 	discovery_latency 	4218
scalar Network600.node190 	number_of_desired_resources 	20
scalar Network600.node190 	query_homogenity_rate 	33.333333333333
scalar Network600.node190 	qrecord_time 	13034.326947341
scalar Network600.node190 	discovery_resolution_rate 	0
scalar Network600.node460 	rate_of_requesters 	1
scalar Network600.node460 	number_of_resources 	33000
scalar Network600.node460 	time_period 	4
scalar Network600.node460 	number_of_messages 	30
scalar Network600.node460 	discovery_latency 	4224
scalar Network600.node460 	number_of_desired_resources 	20
scalar Network600.node460 	query_homogenity_rate 	33.333333333333
scalar Network600.node460 	qrecord_time 	13357.381115105
scalar Network600.node460 	discovery_resolution_rate 	33.333333333333
scalar Network600.node310 	rate_of_requesters 	1
scalar Network600.node310 	number_of_resources 	33000
scalar Network600.node310 	time_period 	2
scalar Network600.node310 	number_of_messages 	2
scalar Network600.node310 	discovery_latency 	4314
scalar Network600.node310 	number_of_desired_resources 	20
scalar Network600.node310 	query_homogenity_rate 	33.333333333333
scalar Network600.node310 	qrecord_time 	13362.679714593
scalar Network600.node310 	discovery_resolution_rate 	0
scalar Network600.node360 	rate_of_requesters 	1
scalar Network600.node360 	number_of_resources 	33000
scalar Network600.node360 	time_period 	2
scalar Network600.node360 	number_of_messages 	2
scalar Network600.node360 	discovery_latency 	4122
scalar Network600.node360 	number_of_desired_resources 	20
scalar Network600.node360 	query_homogenity_rate 	33.333333333333
scalar Network600.node360 	qrecord_time 	13378.02293116
scalar Network600.node360 	discovery_resolution_rate 	0
scalar Network600.node450 	rate_of_requesters 	1
scalar Network600.node450 	number_of_resources 	33000
scalar Network600.node450 	time_period 	3
scalar Network600.node450 	number_of_messages 	68
scalar Network600.node450 	discovery_latency 	4056
scalar Network600.node450 	number_of_desired_resources 	20
scalar Network600.node450 	query_homogenity_rate 	33.333333333333
scalar Network600.node450 	qrecord_time 	13542.960294557
scalar Network600.node450 	discovery_resolution_rate 	33.333333333333
scalar Network600.node160 	rate_of_requesters 	1
scalar Network600.node160 	number_of_resources 	33000
scalar Network600.node160 	time_period 	3
scalar Network600.node160 	number_of_messages 	2
scalar Network600.node160 	discovery_latency 	4374
scalar Network600.node160 	number_of_desired_resources 	20
scalar Network600.node160 	query_homogenity_rate 	33.333333333333
scalar Network600.node160 	qrecord_time 	13577.878874861
scalar Network600.node160 	discovery_resolution_rate 	0
scalar Network600.node390 	rate_of_requesters 	1
scalar Network600.node390 	number_of_resources 	33000
scalar Network600.node390 	time_period 	2
scalar Network600.node390 	number_of_messages 	55
scalar Network600.node390 	discovery_latency 	3636
scalar Network600.node390 	number_of_desired_resources 	20
scalar Network600.node390 	query_homogenity_rate 	33.333333333333
scalar Network600.node390 	qrecord_time 	13596.664910471
scalar Network600.node390 	discovery_resolution_rate 	66.666666666667
scalar Network600.node370 	rate_of_requesters 	1
scalar Network600.node370 	number_of_resources 	33000
scalar Network600.node370 	time_period 	3
scalar Network600.node370 	number_of_messages 	0
scalar Network600.node370 	discovery_latency 	4302
scalar Network600.node370 	number_of_desired_resources 	20
scalar Network600.node370 	query_homogenity_rate 	33.333333333333
scalar Network600.node370 	qrecord_time 	13756.719578351
scalar Network600.node370 	discovery_resolution_rate 	0
scalar Network600.node10 	rate_of_requesters 	1
scalar Network600.node10 	number_of_resources 	33000
scalar Network600.node10 	time_period 	2
scalar Network600.node10 	number_of_messages 	2
scalar Network600.node10 	discovery_latency 	4410
scalar Network600.node10 	number_of_desired_resources 	20
scalar Network600.node10 	query_homogenity_rate 	33.333333333333
scalar Network600.node10 	qrecord_time 	13816.014449033
scalar Network600.node10 	discovery_resolution_rate 	0
scalar Network600.node560 	rate_of_requesters 	1
scalar Network600.node560 	number_of_resources 	33000
scalar Network600.node560 	time_period 	4
scalar Network600.node560 	number_of_messages 	2
scalar Network600.node560 	discovery_latency 	4182
scalar Network600.node560 	number_of_desired_resources 	20
scalar Network600.node560 	query_homogenity_rate 	33.333333333333
scalar Network600.node560 	qrecord_time 	13842.115146676
scalar Network600.node560 	discovery_resolution_rate 	0
scalar Network600.node470 	rate_of_requesters 	1
scalar Network600.node470 	number_of_resources 	33000
scalar Network600.node470 	time_period 	4
scalar Network600.node470 	number_of_messages 	2
scalar Network600.node470 	discovery_latency 	4146
scalar Network600.node470 	number_of_desired_resources 	20
scalar Network600.node470 	query_homogenity_rate 	33.333333333333
scalar Network600.node470 	qrecord_time 	13920.767754717
scalar Network600.node470 	discovery_resolution_rate 	0
scalar Network600.node90 	rate_of_requesters 	1
scalar Network600.node90 	number_of_resources 	33000
scalar Network600.node90 	time_period 	3
scalar Network600.node90 	number_of_messages 	2
scalar Network600.node90 	discovery_latency 	4158
scalar Network600.node90 	number_of_desired_resources 	20
scalar Network600.node90 	query_homogenity_rate 	33.333333333333
scalar Network600.node90 	qrecord_time 	13928.358001378
scalar Network600.node90 	discovery_resolution_rate 	0
scalar Network600.node450 	rate_of_requesters 	1
scalar Network600.node450 	number_of_resources 	33000
scalar Network600.node450 	time_period 	4
scalar Network600.node450 	number_of_messages 	2
scalar Network600.node450 	discovery_latency 	4290
scalar Network600.node450 	number_of_desired_resources 	20
scalar Network600.node450 	query_homogenity_rate 	33.333333333333
scalar Network600.node450 	qrecord_time 	13986.665218139
scalar Network600.node450 	discovery_resolution_rate 	0
scalar Network600.node270 	rate_of_requesters 	1
scalar Network600.node270 	number_of_resources 	33000
scalar Network600.node270 	time_period 	2
scalar Network600.node270 	number_of_messages 	2
scalar Network600.node270 	discovery_latency 	4398
scalar Network600.node270 	number_of_desired_resources 	20
scalar Network600.node270 	query_homogenity_rate 	33.333333333333
scalar Network600.node270 	qrecord_time 	14012.856498077
scalar Network600.node270 	discovery_resolution_rate 	0
scalar Network600.node60 	rate_of_requesters 	1
scalar Network600.node60 	number_of_resources 	33000
scalar Network600.node60 	time_period 	3
scalar Network600.node60 	number_of_messages 	2
scalar Network600.node60 	discovery_latency 	4230
scalar Network600.node60 	number_of_desired_resources 	20
scalar Network600.node60 	query_homogenity_rate 	33.333333333333
scalar Network600.node60 	qrecord_time 	14013.97345249
scalar Network600.node60 	discovery_resolution_rate 	0
scalar Network600.node120 	rate_of_requesters 	1
scalar Network600.node120 	number_of_resources 	33000
scalar Network600.node120 	time_period 	3
scalar Network600.node120 	number_of_messages 	2
scalar Network600.node120 	discovery_latency 	4374
scalar Network600.node120 	number_of_desired_resources 	20
scalar Network600.node120 	query_homogenity_rate 	33.333333333333
scalar Network600.node120 	qrecord_time 	14125.820537912
scalar Network600.node120 	discovery_resolution_rate 	0
scalar Network600.node430 	rate_of_requesters 	1
scalar Network600.node430 	number_of_resources 	33000
scalar Network600.node430 	time_period 	3
scalar Network600.node430 	number_of_messages 	2
scalar Network600.node430 	discovery_latency 	4218
scalar Network600.node430 	number_of_desired_resources 	20
scalar Network600.node430 	query_homogenity_rate 	33.333333333333
scalar Network600.node430 	qrecord_time 	14158.584229116
scalar Network600.node430 	discovery_resolution_rate 	0
scalar Network600.node70 	rate_of_requesters 	1
scalar Network600.node70 	number_of_resources 	33000
scalar Network600.node70 	time_period 	3
scalar Network600.node70 	number_of_messages 	34
scalar Network600.node70 	discovery_latency 	4230
scalar Network600.node70 	number_of_desired_resources 	20
scalar Network600.node70 	query_homogenity_rate 	33.333333333333
scalar Network600.node70 	qrecord_time 	14211.88352525
scalar Network600.node70 	discovery_resolution_rate 	33.333333333333
scalar Network600.node180 	rate_of_requesters 	1
scalar Network600.node180 	number_of_resources 	33000
scalar Network600.node180 	time_period 	4
scalar Network600.node180 	number_of_messages 	2
scalar Network600.node180 	discovery_latency 	4182
scalar Network600.node180 	number_of_desired_resources 	20
scalar Network600.node180 	query_homogenity_rate 	33.333333333333
scalar Network600.node180 	qrecord_time 	14236.03376395
scalar Network600.node180 	discovery_resolution_rate 	0
scalar Network600.node360 	rate_of_requesters 	1
scalar Network600.node360 	number_of_resources 	33000
scalar Network600.node360 	time_period 	3
scalar Network600.node360 	number_of_messages 	36
scalar Network600.node360 	discovery_latency 	4182
scalar Network600.node360 	number_of_desired_resources 	20
scalar Network600.node360 	query_homogenity_rate 	33.333333333333
scalar Network600.node360 	qrecord_time 	14264.677634379
scalar Network600.node360 	discovery_resolution_rate 	33.333333333333
scalar Network600.node220 	rate_of_requesters 	1
scalar Network600.node220 	number_of_resources 	33000
scalar Network600.node220 	time_period 	3
scalar Network600.node220 	number_of_messages 	2
scalar Network600.node220 	discovery_latency 	4242
scalar Network600.node220 	number_of_desired_resources 	20
scalar Network600.node220 	query_homogenity_rate 	33.333333333333
scalar Network600.node220 	qrecord_time 	14337.291324723
scalar Network600.node220 	discovery_resolution_rate 	0
scalar Network600.node580 	rate_of_requesters 	1
scalar Network600.node580 	number_of_resources 	33000
scalar Network600.node580 	time_period 	3
scalar Network600.node580 	number_of_messages 	2
scalar Network600.node580 	discovery_latency 	4338
scalar Network600.node580 	number_of_desired_resources 	20
scalar Network600.node580 	query_homogenity_rate 	33.333333333333
scalar Network600.node580 	qrecord_time 	14455.710636039
scalar Network600.node580 	discovery_resolution_rate 	0
scalar Network600.node0 	rate_of_requesters 	1
scalar Network600.node0 	number_of_resources 	33000
scalar Network600.node0 	time_period 	4
scalar Network600.node0 	number_of_messages 	14
scalar Network600.node0 	discovery_latency 	4422
scalar Network600.node0 	number_of_desired_resources 	20
scalar Network600.node0 	query_homogenity_rate 	33.333333333333
scalar Network600.node0 	qrecord_time 	14534.272347781
scalar Network600.node0 	discovery_resolution_rate 	33.333333333333
scalar Network600.node380 	rate_of_requesters 	1
scalar Network600.node380 	number_of_resources 	33000
scalar Network600.node380 	time_period 	2
scalar Network600.node380 	number_of_messages 	2
scalar Network600.node380 	discovery_latency 	4278
scalar Network600.node380 	number_of_desired_resources 	20
scalar Network600.node380 	query_homogenity_rate 	33.333333333333
scalar Network600.node380 	qrecord_time 	14624.888541688
scalar Network600.node380 	discovery_resolution_rate 	0
scalar Network600.node370 	rate_of_requesters 	1
scalar Network600.node370 	number_of_resources 	33000
scalar Network600.node370 	time_period 	4
scalar Network600.node370 	number_of_messages 	0
scalar Network600.node370 	discovery_latency 	4314
scalar Network600.node370 	number_of_desired_resources 	20
scalar Network600.node370 	query_homogenity_rate 	33.333333333333
scalar Network600.node370 	qrecord_time 	14627.621022734
scalar Network600.node370 	discovery_resolution_rate 	0
scalar Network600.node170 	rate_of_requesters 	1
scalar Network600.node170 	number_of_resources 	33000
scalar Network600.node170 	time_period 	2
scalar Network600.node170 	number_of_messages 	2
scalar Network600.node170 	discovery_latency 	4218
scalar Network600.node170 	number_of_desired_resources 	20
scalar Network600.node170 	query_homogenity_rate 	33.333333333333
scalar Network600.node170 	qrecord_time 	14628.304053003
scalar Network600.node170 	discovery_resolution_rate 	0
scalar Network600.node260 	rate_of_requesters 	1
scalar Network600.node260 	number_of_resources 	33000
scalar Network600.node260 	time_period 	3
scalar Network600.node260 	number_of_messages 	8
scalar Network600.node260 	discovery_latency 	4254
scalar Network600.node260 	number_of_desired_resources 	20
scalar Network600.node260 	query_homogenity_rate 	33.333333333333
scalar Network600.node260 	qrecord_time 	14637.143682215
scalar Network600.node260 	discovery_resolution_rate 	33.333333333333
scalar Network600.node20 	rate_of_requesters 	1
scalar Network600.node20 	number_of_resources 	33000
scalar Network600.node20 	time_period 	2
scalar Network600.node20 	number_of_messages 	2
scalar Network600.node20 	discovery_latency 	4194
scalar Network600.node20 	number_of_desired_resources 	20
scalar Network600.node20 	query_homogenity_rate 	33.333333333333
scalar Network600.node20 	qrecord_time 	14661.857031019
scalar Network600.node20 	discovery_resolution_rate 	0
scalar Network600.node80 	rate_of_requesters 	1
scalar Network600.node80 	number_of_resources 	33000
scalar Network600.node80 	time_period 	3
scalar Network600.node80 	number_of_messages 	15
scalar Network600.node80 	discovery_latency 	4398
scalar Network600.node80 	number_of_desired_resources 	20
scalar Network600.node80 	query_homogenity_rate 	33.333333333333
scalar Network600.node80 	qrecord_time 	14667.500109096
scalar Network600.node80 	discovery_resolution_rate 	33.333333333333
scalar Network600.node400 	rate_of_requesters 	1
scalar Network600.node400 	number_of_resources 	33000
scalar Network600.node400 	time_period 	2
scalar Network600.node400 	number_of_messages 	8
scalar Network600.node400 	discovery_latency 	3936
scalar Network600.node400 	number_of_desired_resources 	20
scalar Network600.node400 	query_homogenity_rate 	33.333333333333
scalar Network600.node400 	qrecord_time 	14705.956309592
scalar Network600.node400 	discovery_resolution_rate 	33.333333333333
scalar Network600.node150 	rate_of_requesters 	1
scalar Network600.node150 	number_of_resources 	33000
scalar Network600.node150 	time_period 	2
scalar Network600.node150 	number_of_messages 	2
scalar Network600.node150 	discovery_latency 	4242
scalar Network600.node150 	number_of_desired_resources 	20
scalar Network600.node150 	query_homogenity_rate 	33.333333333333
scalar Network600.node150 	qrecord_time 	14747.966712858
scalar Network600.node150 	discovery_resolution_rate 	0
scalar Network600.node60 	rate_of_requesters 	1
scalar Network600.node60 	number_of_resources 	33000
scalar Network600.node60 	time_period 	4
scalar Network600.node60 	number_of_messages 	47
scalar Network600.node60 	discovery_latency 	4266
scalar Network600.node60 	number_of_desired_resources 	20
scalar Network600.node60 	query_homogenity_rate 	33.333333333333
scalar Network600.node60 	qrecord_time 	14749.727928019
scalar Network600.node60 	discovery_resolution_rate 	33.333333333333
scalar Network600.node480 	rate_of_requesters 	1
scalar Network600.node480 	number_of_resources 	33000
scalar Network600.node480 	time_period 	3
scalar Network600.node480 	number_of_messages 	2
scalar Network600.node480 	discovery_latency 	4386
scalar Network600.node480 	number_of_desired_resources 	20
scalar Network600.node480 	query_homogenity_rate 	33.333333333333
scalar Network600.node480 	qrecord_time 	14770.917588952
scalar Network600.node480 	discovery_resolution_rate 	0
scalar Network600.node80 	rate_of_requesters 	1
scalar Network600.node80 	number_of_resources 	33000
scalar Network600.node80 	time_period 	4
scalar Network600.node80 	number_of_messages 	2
scalar Network600.node80 	discovery_latency 	4506
scalar Network600.node80 	number_of_desired_resources 	20
scalar Network600.node80 	query_homogenity_rate 	33.333333333333
scalar Network600.node80 	qrecord_time 	14829.207358526
scalar Network600.node80 	discovery_resolution_rate 	0
scalar Network600.node160 	rate_of_requesters 	1
scalar Network600.node160 	number_of_resources 	33000
scalar Network600.node160 	time_period 	4
scalar Network600.node160 	number_of_messages 	38
scalar Network600.node160 	discovery_latency 	4044
scalar Network600.node160 	number_of_desired_resources 	20
scalar Network600.node160 	query_homogenity_rate 	33.333333333333
scalar Network600.node160 	qrecord_time 	14832.341699792
scalar Network600.node160 	discovery_resolution_rate 	33.333333333333
scalar Network600.node60 	rate_of_requesters 	1
scalar Network600.node60 	number_of_resources 	33000
scalar Network600.node60 	time_period 	5
scalar Network600.node60 	number_of_messages 	2
scalar Network600.node60 	discovery_latency 	4374
scalar Network600.node60 	number_of_desired_resources 	20
scalar Network600.node60 	query_homogenity_rate 	33.333333333333
scalar Network600.node60 	qrecord_time 	14884.688584986
scalar Network600.node60 	discovery_resolution_rate 	0
scalar Network600.node570 	rate_of_requesters 	1
scalar Network600.node570 	number_of_resources 	33000
scalar Network600.node570 	time_period 	3
scalar Network600.node570 	number_of_messages 	51
scalar Network600.node570 	discovery_latency 	3984
scalar Network600.node570 	number_of_desired_resources 	20
scalar Network600.node570 	query_homogenity_rate 	33.333333333333
scalar Network600.node570 	qrecord_time 	14907.725746947
scalar Network600.node570 	discovery_resolution_rate 	33.333333333333
scalar Network600.node350 	rate_of_requesters 	1
scalar Network600.node350 	number_of_resources 	33000
scalar Network600.node350 	time_period 	3
scalar Network600.node350 	number_of_messages 	27
scalar Network600.node350 	discovery_latency 	4128
scalar Network600.node350 	number_of_desired_resources 	20
scalar Network600.node350 	query_homogenity_rate 	33.333333333333
scalar Network600.node350 	qrecord_time 	14955.778971491
scalar Network600.node350 	discovery_resolution_rate 	33.333333333333
scalar Network600.node210 	rate_of_requesters 	1
scalar Network600.node210 	number_of_resources 	33000
scalar Network600.node210 	time_period 	2
scalar Network600.node210 	number_of_messages 	49
scalar Network600.node210 	discovery_latency 	4104
scalar Network600.node210 	number_of_desired_resources 	20
scalar Network600.node210 	query_homogenity_rate 	33.333333333333
scalar Network600.node210 	qrecord_time 	14982.446114603
scalar Network600.node210 	discovery_resolution_rate 	33.333333333333
scalar Network600.node140 	rate_of_requesters 	1
scalar Network600.node140 	number_of_resources 	33000
scalar Network600.node140 	time_period 	3
scalar Network600.node140 	number_of_messages 	28
scalar Network600.node140 	discovery_latency 	4542
scalar Network600.node140 	number_of_desired_resources 	20
scalar Network600.node140 	query_homogenity_rate 	33.333333333333
scalar Network600.node140 	qrecord_time 	15029.482698387
scalar Network600.node140 	discovery_resolution_rate 	33.333333333333
scalar Network600.node560 	rate_of_requesters 	1
scalar Network600.node560 	number_of_resources 	33000
scalar Network600.node560 	time_period 	5
scalar Network600.node560 	number_of_messages 	194
scalar Network600.node560 	discovery_latency 	4422
scalar Network600.node560 	number_of_desired_resources 	20
scalar Network600.node560 	query_homogenity_rate 	33.333333333333
scalar Network600.node560 	qrecord_time 	15068.64776701
scalar Network600.node560 	discovery_resolution_rate 	16.666666666667
scalar Network600.node590 	rate_of_requesters 	1
scalar Network600.node590 	number_of_resources 	33000
scalar Network600.node590 	time_period 	5
scalar Network600.node590 	number_of_messages 	198
scalar Network600.node590 	discovery_latency 	4020
scalar Network600.node590 	number_of_desired_resources 	20
scalar Network600.node590 	query_homogenity_rate 	33.333333333333
scalar Network600.node590 	qrecord_time 	15107.939381406
scalar Network600.node590 	discovery_resolution_rate 	50
scalar Network600.node120 	rate_of_requesters 	1
scalar Network600.node120 	number_of_resources 	33000
scalar Network600.node120 	time_period 	4
scalar Network600.node120 	number_of_messages 	230
scalar Network600.node120 	discovery_latency 	4290
scalar Network600.node120 	number_of_desired_resources 	20
scalar Network600.node120 	query_homogenity_rate 	33.333333333333
scalar Network600.node120 	qrecord_time 	15152.335825206
scalar Network600.node120 	discovery_resolution_rate 	50
scalar Network600.node340 	rate_of_requesters 	1
scalar Network600.node340 	number_of_resources 	33000
scalar Network600.node340 	time_period 	2
scalar Network600.node340 	number_of_messages 	31
scalar Network600.node340 	discovery_latency 	3996
scalar Network600.node340 	number_of_desired_resources 	20
scalar Network600.node340 	query_homogenity_rate 	33.333333333333
scalar Network600.node340 	qrecord_time 	15175.092553372
scalar Network600.node340 	discovery_resolution_rate 	33.333333333333
scalar Network600.node540 	rate_of_requesters 	1
scalar Network600.node540 	number_of_resources 	33000
scalar Network600.node540 	time_period 	6
scalar Network600.node540 	number_of_messages 	7
scalar Network600.node540 	discovery_latency 	4302
scalar Network600.node540 	number_of_desired_resources 	20
scalar Network600.node540 	query_homogenity_rate 	33.333333333333
scalar Network600.node540 	qrecord_time 	15194.625460824
scalar Network600.node540 	discovery_resolution_rate 	33.333333333333
scalar Network600.node250 	rate_of_requesters 	1
scalar Network600.node250 	number_of_resources 	33000
scalar Network600.node250 	time_period 	3
scalar Network600.node250 	number_of_messages 	2
scalar Network600.node250 	discovery_latency 	4254
scalar Network600.node250 	number_of_desired_resources 	20
scalar Network600.node250 	query_homogenity_rate 	33.333333333333
scalar Network600.node250 	qrecord_time 	15195.135715297
scalar Network600.node250 	discovery_resolution_rate 	0
scalar Network600.node550 	rate_of_requesters 	1
scalar Network600.node550 	number_of_resources 	33000
scalar Network600.node550 	time_period 	2
scalar Network600.node550 	number_of_messages 	40
scalar Network600.node550 	discovery_latency 	3600
scalar Network600.node550 	number_of_desired_resources 	20
[...]
scalar Network600.node390 	number_of_messages 	29
scalar Network600.node390 	discovery_latency 	252
scalar Network600.node390 	number_of_desired_resources 	20
scalar Network600.node390 	query_homogenity_rate 	33.333333333333
scalar Network600.node390 	qrecord_time 	45142.680424981
scalar Network600.node390 	discovery_resolution_rate 	100
scalar Network600.node200 	rate_of_requesters 	1
scalar Network600.node200 	number_of_resources 	33000
scalar Network600.node200 	time_period 	9
scalar Network600.node200 	number_of_messages 	59
scalar Network600.node200 	discovery_latency 	3756
scalar Network600.node200 	number_of_desired_resources 	20
scalar Network600.node200 	query_homogenity_rate 	33.333333333333
scalar Network600.node200 	qrecord_time 	45222.195454842
scalar Network600.node200 	discovery_resolution_rate 	66.666666666667
scalar Network600.node400 	rate_of_requesters 	1
scalar Network600.node400 	number_of_resources 	33000
scalar Network600.node400 	time_period 	7
scalar Network600.node400 	number_of_messages 	42
scalar Network600.node400 	discovery_latency 	264
scalar Network600.node400 	number_of_desired_resources 	20
scalar Network600.node400 	query_homogenity_rate 	33.333333333333
scalar Network600.node400 	qrecord_time 	45223.060254665
scalar Network600.node400 	discovery_resolution_rate 	100
scalar Network600.node340 	rate_of_requesters 	1
scalar Network600.node340 	number_of_resources 	33000
scalar Network600.node340 	time_period 	10
scalar Network600.node340 	number_of_messages 	14
scalar Network600.node340 	discovery_latency 	3588
scalar Network600.node340 	number_of_desired_resources 	20
scalar Network600.node340 	query_homogenity_rate 	33.333333333333
scalar Network600.node340 	qrecord_time 	45288.027755755
scalar Network600.node340 	discovery_resolution_rate 	66.666666666667
scalar Network600.node350 	rate_of_requesters 	1
scalar Network600.node350 	number_of_resources 	33000
scalar Network600.node350 	time_period 	9
scalar Network600.node350 	number_of_messages 	22
scalar Network600.node350 	discovery_latency 	168
scalar Network600.node350 	number_of_desired_resources 	20
scalar Network600.node350 	query_homogenity_rate 	33.333333333333
scalar Network600.node350 	qrecord_time 	45300.198638675
scalar Network600.node350 	discovery_resolution_rate 	100
scalar Network600.node200 	rate_of_requesters 	1
scalar Network600.node200 	number_of_resources 	33000
scalar Network600.node200 	time_period 	10
scalar Network600.node200 	number_of_messages 	67
scalar Network600.node200 	discovery_latency 	3612
scalar Network600.node200 	number_of_desired_resources 	20
scalar Network600.node200 	query_homogenity_rate 	33.333333333333
scalar Network600.node200 	qrecord_time 	45370.12343392
scalar Network600.node200 	discovery_resolution_rate 	66.666666666667
scalar Network600.node570 	rate_of_requesters 	1
scalar Network600.node570 	number_of_resources 	33000
scalar Network600.node570 	time_period 	10
scalar Network600.node570 	number_of_messages 	86
scalar Network600.node570 	discovery_latency 	3852
scalar Network600.node570 	number_of_desired_resources 	20
scalar Network600.node570 	query_homogenity_rate 	33.333333333333
scalar Network600.node570 	qrecord_time 	45843.390376777
scalar Network600.node570 	discovery_resolution_rate 	66.666666666667
scalar Network600.node440 	rate_of_requesters 	1
scalar Network600.node440 	number_of_resources 	33000
scalar Network600.node440 	time_period 	10
scalar Network600.node440 	number_of_messages 	47
scalar Network600.node440 	discovery_latency 	3972
scalar Network600.node440 	number_of_desired_resources 	20
scalar Network600.node440 	query_homogenity_rate 	33.333333333333
scalar Network600.node440 	qrecord_time 	46016.508387038
scalar Network600.node440 	discovery_resolution_rate 	33.333333333333
scalar Network600.node170 	rate_of_requesters 	1
scalar Network600.node170 	number_of_resources 	33000
scalar Network600.node170 	time_period 	10
scalar Network600.node170 	number_of_messages 	28
scalar Network600.node170 	discovery_latency 	252
scalar Network600.node170 	number_of_desired_resources 	20
scalar Network600.node170 	query_homogenity_rate 	33.333333333333
scalar Network600.node170 	qrecord_time 	46025.003714961
scalar Network600.node170 	discovery_resolution_rate 	100
scalar Network600.node500 	rate_of_requesters 	1
scalar Network600.node500 	number_of_resources 	33000
scalar Network600.node500 	time_period 	8
scalar Network600.node500 	number_of_messages 	17
scalar Network600.node500 	discovery_latency 	132.00000000001
scalar Network600.node500 	number_of_desired_resources 	20
scalar Network600.node500 	query_homogenity_rate 	33.333333333333
scalar Network600.node500 	qrecord_time 	46055.197662638
scalar Network600.node500 	discovery_resolution_rate 	100
scalar Network600.node100 	rate_of_requesters 	1
scalar Network600.node100 	number_of_resources 	33000
scalar Network600.node100 	time_period 	6
scalar Network600.node100 	number_of_messages 	30
scalar Network600.node100 	discovery_latency 	228
scalar Network600.node100 	number_of_desired_resources 	20
scalar Network600.node100 	query_homogenity_rate 	33.333333333333
scalar Network600.node100 	qrecord_time 	46110.543987864
scalar Network600.node100 	discovery_resolution_rate 	100
scalar Network600.node300 	rate_of_requesters 	1
scalar Network600.node300 	number_of_resources 	33000
scalar Network600.node300 	time_period 	10
scalar Network600.node300 	number_of_messages 	37
scalar Network600.node300 	discovery_latency 	228
scalar Network600.node300 	number_of_desired_resources 	20
scalar Network600.node300 	query_homogenity_rate 	33.333333333333
scalar Network600.node300 	qrecord_time 	46307.663854763
scalar Network600.node300 	discovery_resolution_rate 	100
scalar Network600.node120 	rate_of_requesters 	1
scalar Network600.node120 	number_of_resources 	33000
scalar Network600.node120 	time_period 	10
scalar Network600.node120 	number_of_messages 	28
scalar Network600.node120 	discovery_latency 	264
scalar Network600.node120 	number_of_desired_resources 	20
scalar Network600.node120 	query_homogenity_rate 	33.333333333333
scalar Network600.node120 	qrecord_time 	47054.984287613
scalar Network600.node120 	discovery_resolution_rate 	100
scalar Network600.node210 	rate_of_requesters 	1
scalar Network600.node210 	number_of_resources 	33000
scalar Network600.node210 	time_period 	10
scalar Network600.node210 	number_of_messages 	26
scalar Network600.node210 	discovery_latency 	156
scalar Network600.node210 	number_of_desired_resources 	20
scalar Network600.node210 	query_homogenity_rate 	33.333333333333
scalar Network600.node210 	qrecord_time 	47153.294094874
scalar Network600.node210 	discovery_resolution_rate 	100
scalar Network600.node100 	rate_of_requesters 	1
scalar Network600.node100 	number_of_resources 	33000
scalar Network600.node100 	time_period 	7
scalar Network600.node100 	number_of_messages 	20
scalar Network600.node100 	discovery_latency 	144.00000000001
scalar Network600.node100 	number_of_desired_resources 	20
scalar Network600.node100 	query_homogenity_rate 	33.333333333333
scalar Network600.node100 	qrecord_time 	48548.55493125
scalar Network600.node100 	discovery_resolution_rate 	100
scalar Network600.node350 	rate_of_requesters 	1
scalar Network600.node350 	number_of_resources 	33000
scalar Network600.node350 	time_period 	10
scalar Network600.node350 	number_of_messages 	22
scalar Network600.node350 	discovery_latency 	168
scalar Network600.node350 	number_of_desired_resources 	20
scalar Network600.node350 	query_homogenity_rate 	33.333333333333
scalar Network600.node350 	qrecord_time 	48856.964260874
scalar Network600.node350 	discovery_resolution_rate 	100
scalar Network600.node100 	rate_of_requesters 	1
scalar Network600.node100 	number_of_resources 	33000
scalar Network600.node100 	time_period 	8
scalar Network600.node100 	number_of_messages 	19
scalar Network600.node100 	discovery_latency 	144.00000000001
scalar Network600.node100 	number_of_desired_resources 	20
scalar Network600.node100 	query_homogenity_rate 	33.333333333333
scalar Network600.node100 	qrecord_time 	48932.443381851
scalar Network600.node100 	discovery_resolution_rate 	100
scalar Network600.node520 	rate_of_requesters 	1
scalar Network600.node520 	number_of_resources 	33000
scalar Network600.node520 	time_period 	7
scalar Network600.node520 	number_of_messages 	22
scalar Network600.node520 	discovery_latency 	192
scalar Network600.node520 	number_of_desired_resources 	20
scalar Network600.node520 	query_homogenity_rate 	33.333333333333
scalar Network600.node520 	qrecord_time 	50491.957833437
scalar Network600.node520 	discovery_resolution_rate 	100
scalar Network600.node410 	rate_of_requesters 	1
scalar Network600.node410 	number_of_resources 	33000
scalar Network600.node410 	time_period 	9
scalar Network600.node410 	number_of_messages 	14
scalar Network600.node410 	discovery_latency 	95.999999999997
scalar Network600.node410 	number_of_desired_resources 	20
scalar Network600.node410 	query_homogenity_rate 	33.333333333333
scalar Network600.node410 	qrecord_time 	51130.011923519
scalar Network600.node410 	discovery_resolution_rate 	100
scalar Network600.node100 	rate_of_requesters 	1
scalar Network600.node100 	number_of_resources 	33000
scalar Network600.node100 	time_period 	9
scalar Network600.node100 	number_of_messages 	20
scalar Network600.node100 	discovery_latency 	168
scalar Network600.node100 	number_of_desired_resources 	20
scalar Network600.node100 	query_homogenity_rate 	33.333333333333
scalar Network600.node100 	qrecord_time 	51425.431770505
scalar Network600.node100 	discovery_resolution_rate 	100
scalar Network600.node400 	rate_of_requesters 	1
scalar Network600.node400 	number_of_resources 	33000
scalar Network600.node400 	time_period 	8
scalar Network600.node400 	number_of_messages 	26
scalar Network600.node400 	discovery_latency 	192
scalar Network600.node400 	number_of_desired_resources 	20
scalar Network600.node400 	query_homogenity_rate 	33.333333333333
scalar Network600.node400 	qrecord_time 	52085.24942272
scalar Network600.node400 	discovery_resolution_rate 	100
scalar Network600.node330 	rate_of_requesters 	1
scalar Network600.node330 	number_of_resources 	33000
scalar Network600.node330 	time_period 	8
scalar Network600.node330 	number_of_messages 	20
scalar Network600.node330 	discovery_latency 	120
scalar Network600.node330 	number_of_desired_resources 	20
scalar Network600.node330 	query_homogenity_rate 	33.333333333333
scalar Network600.node330 	qrecord_time 	52648.07878313
scalar Network600.node330 	discovery_resolution_rate 	100
scalar Network600.node130 	rate_of_requesters 	1
scalar Network600.node130 	number_of_resources 	33000
scalar Network600.node130 	time_period 	7
scalar Network600.node130 	number_of_messages 	19
scalar Network600.node130 	discovery_latency 	132.00000000001
scalar Network600.node130 	number_of_desired_resources 	20
scalar Network600.node130 	query_homogenity_rate 	33.333333333333
scalar Network600.node130 	qrecord_time 	52883.89986066
scalar Network600.node130 	discovery_resolution_rate 	100
scalar Network600.node100 	rate_of_requesters 	1
scalar Network600.node100 	number_of_resources 	33000
scalar Network600.node100 	time_period 	10
scalar Network600.node100 	number_of_messages 	28
scalar Network600.node100 	discovery_latency 	288
scalar Network600.node100 	number_of_desired_resources 	20
scalar Network600.node100 	query_homogenity_rate 	33.333333333333
scalar Network600.node100 	qrecord_time 	53014.354183956
scalar Network600.node100 	discovery_resolution_rate 	100
scalar Network600.node500 	rate_of_requesters 	1
scalar Network600.node500 	number_of_resources 	33000
scalar Network600.node500 	time_period 	9
scalar Network600.node500 	number_of_messages 	21
scalar Network600.node500 	discovery_latency 	252
scalar Network600.node500 	number_of_desired_resources 	20
scalar Network600.node500 	query_homogenity_rate 	33.333333333333
scalar Network600.node500 	qrecord_time 	53370.948724079
scalar Network600.node500 	discovery_resolution_rate 	100
scalar Network600.node410 	rate_of_requesters 	1
scalar Network600.node410 	number_of_resources 	33000
scalar Network600.node410 	time_period 	10
scalar Network600.node410 	number_of_messages 	14
scalar Network600.node410 	discovery_latency 	96.000000000004
scalar Network600.node410 	number_of_desired_resources 	20
scalar Network600.node410 	query_homogenity_rate 	33.333333333333
scalar Network600.node410 	qrecord_time 	53453.885638799
scalar Network600.node410 	discovery_resolution_rate 	100
scalar Network600.node400 	rate_of_requesters 	1
scalar Network600.node400 	number_of_resources 	33000
scalar Network600.node400 	time_period 	9
scalar Network600.node400 	number_of_messages 	34
scalar Network600.node400 	discovery_latency 	264
scalar Network600.node400 	number_of_desired_resources 	20
scalar Network600.node400 	query_homogenity_rate 	33.333333333333
scalar Network600.node400 	qrecord_time 	53796.870775905
scalar Network600.node400 	discovery_resolution_rate 	100
scalar Network600.node240 	rate_of_requesters 	1
scalar Network600.node240 	number_of_resources 	33000
scalar Network600.node240 	time_period 	7
scalar Network600.node240 	number_of_messages 	25
scalar Network600.node240 	discovery_latency 	168
scalar Network600.node240 	number_of_desired_resources 	20
scalar Network600.node240 	query_homogenity_rate 	33.333333333333
scalar Network600.node240 	qrecord_time 	54618.603190054
scalar Network600.node240 	discovery_resolution_rate 	100
scalar Network600.node240 	rate_of_requesters 	1
scalar Network600.node240 	number_of_resources 	33000
scalar Network600.node240 	time_period 	8
scalar Network600.node240 	number_of_messages 	20
scalar Network600.node240 	discovery_latency 	168
scalar Network600.node240 	number_of_desired_resources 	20
scalar Network600.node240 	query_homogenity_rate 	33.333333333333
scalar Network600.node240 	qrecord_time 	56699.029804822
scalar Network600.node240 	discovery_resolution_rate 	100
scalar Network600.node400 	rate_of_requesters 	1
scalar Network600.node400 	number_of_resources 	33000
scalar Network600.node400 	time_period 	10
scalar Network600.node400 	number_of_messages 	25
scalar Network600.node400 	discovery_latency 	168
scalar Network600.node400 	number_of_desired_resources 	20
scalar Network600.node400 	query_homogenity_rate 	33.333333333333
scalar Network600.node400 	qrecord_time 	57910.639871791
scalar Network600.node400 	discovery_resolution_rate 	100
scalar Network600.node130 	rate_of_requesters 	1
scalar Network600.node130 	number_of_resources 	33000
scalar Network600.node130 	time_period 	8
scalar Network600.node130 	number_of_messages 	18
scalar Network600.node130 	discovery_latency 	132
scalar Network600.node130 	number_of_desired_resources 	20
scalar Network600.node130 	query_homogenity_rate 	33.333333333333
scalar Network600.node130 	qrecord_time 	58138.012273181
scalar Network600.node130 	discovery_resolution_rate 	100
scalar Network600.node500 	rate_of_requesters 	1
scalar Network600.node500 	number_of_resources 	33000
scalar Network600.node500 	time_period 	10
scalar Network600.node500 	number_of_messages 	15
scalar Network600.node500 	discovery_latency 	132
scalar Network600.node500 	number_of_desired_resources 	20
scalar Network600.node500 	query_homogenity_rate 	33.333333333333
scalar Network600.node500 	qrecord_time 	59221.366596208
scalar Network600.node500 	discovery_resolution_rate 	100
scalar Network600.node130 	rate_of_requesters 	1
scalar Network600.node130 	number_of_resources 	33000
scalar Network600.node130 	time_period 	9
scalar Network600.node130 	number_of_messages 	18
scalar Network600.node130 	discovery_latency 	132.00000000001
scalar Network600.node130 	number_of_desired_resources 	20
scalar Network600.node130 	query_homogenity_rate 	33.333333333333
scalar Network600.node130 	qrecord_time 	59225.431988669
scalar Network600.node130 	discovery_resolution_rate 	100
scalar Network600.node330 	rate_of_requesters 	1
scalar Network600.node330 	number_of_resources 	33000
scalar Network600.node330 	time_period 	9
scalar Network600.node330 	number_of_messages 	19
scalar Network600.node330 	discovery_latency 	120
scalar Network600.node330 	number_of_desired_resources 	20
scalar Network600.node330 	query_homogenity_rate 	33.333333333333
scalar Network600.node330 	qrecord_time 	60420.566865395
scalar Network600.node330 	discovery_resolution_rate 	100
scalar Network600.node240 	rate_of_requesters 	1
scalar Network600.node240 	number_of_resources 	33000
scalar Network600.node240 	time_period 	9
scalar Network600.node240 	number_of_messages 	22
scalar Network600.node240 	discovery_latency 	168
scalar Network600.node240 	number_of_desired_resources 	20
scalar Network600.node240 	query_homogenity_rate 	33.333333333333
scalar Network600.node240 	qrecord_time 	62944.296669882
scalar Network600.node240 	discovery_resolution_rate 	100
scalar Network600.node130 	rate_of_requesters 	1
scalar Network600.node130 	number_of_resources 	33000
scalar Network600.node130 	time_period 	10
scalar Network600.node130 	number_of_messages 	17
scalar Network600.node130 	discovery_latency 	131.99999999999
scalar Network600.node130 	number_of_desired_resources 	20
scalar Network600.node130 	query_homogenity_rate 	33.333333333333
scalar Network600.node130 	qrecord_time 	64101.307335506
scalar Network600.node130 	discovery_resolution_rate 	100
scalar Network600.node330 	rate_of_requesters 	1
scalar Network600.node330 	number_of_resources 	33000
scalar Network600.node330 	time_period 	10
scalar Network600.node330 	number_of_messages 	19
scalar Network600.node330 	discovery_latency 	120
scalar Network600.node330 	number_of_desired_resources 	20
scalar Network600.node330 	query_homogenity_rate 	33.333333333333
scalar Network600.node330 	qrecord_time 	67502.457819401
scalar Network600.node330 	discovery_resolution_rate 	100
scalar Network600.node520 	rate_of_requesters 	1
scalar Network600.node520 	number_of_resources 	33000
scalar Network600.node520 	time_period 	8
scalar Network600.node520 	number_of_messages 	22
scalar Network600.node520 	discovery_latency 	191.99999999999
scalar Network600.node520 	number_of_desired_resources 	20
scalar Network600.node520 	query_homogenity_rate 	33.333333333333
scalar Network600.node520 	qrecord_time 	68005.483308718
scalar Network600.node520 	discovery_resolution_rate 	100
scalar Network600.node240 	rate_of_requesters 	1
scalar Network600.node240 	number_of_resources 	33000
scalar Network600.node240 	time_period 	10
scalar Network600.node240 	number_of_messages 	20
scalar Network600.node240 	discovery_latency 	167.99999999999
scalar Network600.node240 	number_of_desired_resources 	20
scalar Network600.node240 	query_homogenity_rate 	33.333333333333
scalar Network600.node240 	qrecord_time 	69878.266784438
scalar Network600.node240 	discovery_resolution_rate 	100
scalar Network600.node520 	rate_of_requesters 	1
scalar Network600.node520 	number_of_resources 	33000
scalar Network600.node520 	time_period 	9
scalar Network600.node520 	number_of_messages 	22
scalar Network600.node520 	discovery_latency 	191.99999999999
scalar Network600.node520 	number_of_desired_resources 	20
scalar Network600.node520 	query_homogenity_rate 	33.333333333333
scalar Network600.node520 	qrecord_time 	73582.079611412
scalar Network600.node520 	discovery_resolution_rate 	100
scalar Network600.node520 	rate_of_requesters 	1
scalar Network600.node520 	number_of_resources 	33000
scalar Network600.node520 	time_period 	10
scalar Network600.node520 	number_of_messages 	22
scalar Network600.node520 	discovery_latency 	192.00000000001
scalar Network600.node520 	number_of_desired_resources 	20
scalar Network600.node520 	query_homogenity_rate 	33.333333333333
scalar Network600.node520 	qrecord_time 	74958.138027415
scalar Network600.node520 	discovery_resolution_rate 	100
