version 2
run net600-0-20150623-19:54:56-18761
attr as 1
attr configname net600
attr datetime 20150623-19:54:56
attr dnor 20
attr experiment net600
attr inifile omnetpp.ini
attr iterationvars "$rhdrq=3, $dnor=20, $as=1"
attr iterationvars2 "$rhdrq=3, $dnor=20, $as=1, $repetition=0"
attr measurement "$rhdrq=3, $dnor=20, $as=1"
attr network Network600
attr processid 18761
attr repetition 0
attr replication #0
attr resultdir results
attr rhdrq 3
attr runnumber 0
attr seedset 0

scalar . 	as 	1
scalar . 	dnor 	20
scalar . 	rhdrq 	3
scalar Network600.node150 	rate_of_requesters 	1
scalar Network600.node150 	number_of_resources 	33000
scalar Network600.node150 	time_period 	1
scalar Network600.node150 	number_of_messages 	41
scalar Network600.node150 	discovery_latency 	312
scalar Network600.node150 	number_of_desired_resources 	20
scalar Network600.node150 	query_homogenity_rate 	33.333333333333
scalar Network600.node150 	qrecord_time 	5002
scalar Network600.node150 	discovery_resolution_rate 	100
scalar Network600.node340 	rate_of_requesters 	1
scalar Network600.node340 	number_of_resources 	33000
scalar Network600.node340 	time_period 	1
scalar Network600.node340 	number_of_messages 	19
scalar Network600.node340 	discovery_latency 	3228
scalar Network600.node340 	number_of_desired_resources 	20
scalar Network600.node340 	query_homogenity_rate 	33.333333333333
scalar Network600.node340 	qrecord_time 	7960
scalar Network600.node340 	discovery_resolution_rate 	66.666666666667
scalar Network600.node480 	rate_of_requesters 	1
scalar Network600.node480 	number_of_resources 	33000
scalar Network600.node480 	time_period 	1
scalar Network600.node480 	number_of_messages 	26
scalar Network600.node480 	discovery_latency 	3324
scalar Network600.node480 	number_of_desired_resources 	20
scalar Network600.node480 	query_homogenity_rate 	33.333333333333
scalar Network600.node480 	qrecord_time 	8044
scalar Network600.node480 	discovery_resolution_rate 	66.666666666667
scalar Network600.node270 	rate_of_requesters 	1
scalar Network600.node270 	number_of_resources 	33000
scalar Network600.node270 	time_period 	1
scalar Network600.node270 	number_of_messages 	44
scalar Network600.node270 	discovery_latency 	3312
scalar Network600.node270 	number_of_desired_resources 	20
scalar Network600.node270 	query_homogenity_rate 	33.333333333333
scalar Network600.node270 	qrecord_time 	8062
scalar Network600.node270 	discovery_resolution_rate 	66.666666666667
scalar Network600.node400 	rate_of_requesters 	1
scalar Network600.node400 	number_of_resources 	33000
scalar Network600.node400 	time_period 	1
scalar Network600.node400 	number_of_messages 	241
scalar Network600.node400 	discovery_latency 	3456
scalar Network600.node400 	number_of_desired_resources 	20
scalar Network600.node400 	query_homogenity_rate 	33.333333333333
scalar Network600.node400 	qrecord_time 	8098
scalar Network600.node400 	discovery_resolution_rate 	83.333333333333
scalar Network600.node10 	rate_of_requesters 	1
scalar Network600.node10 	number_of_resources 	33000
scalar Network600.node10 	time_period 	1
scalar Network600.node10 	number_of_messages 	8
scalar Network600.node10 	discovery_latency 	3384
scalar Network600.node10 	number_of_desired_resources 	20
scalar Network600.node10 	query_homogenity_rate 	33.333333333333
scalar Network600.node10 	qrecord_time 	8098
scalar Network600.node10 	discovery_resolution_rate 	33.333333333333
scalar Network600.node30 	rate_of_requesters 	1
scalar Network600.node30 	number_of_resources 	33000
scalar Network600.node30 	time_period 	1
scalar Network600.node30 	number_of_messages 	7
scalar Network600.node30 	discovery_latency 	3420
scalar Network600.node30 	number_of_desired_resources 	20
scalar Network600.node30 	query_homogenity_rate 	33.333333333333
scalar Network600.node30 	qrecord_time 	8110
scalar Network600.node30 	discovery_resolution_rate 	33.333333333333
scalar Network600.node390 	rate_of_requesters 	1
scalar Network600.node390 	number_of_resources 	33000
scalar Network600.node390 	time_period 	1
scalar Network600.node390 	number_of_messages 	12
scalar Network600.node390 	discovery_latency 	3396
scalar Network600.node390 	number_of_desired_resources 	20
scalar Network600.node390 	query_homogenity_rate 	33.333333333333
scalar Network600.node390 	qrecord_time 	8122
scalar Network600.node390 	discovery_resolution_rate 	33.333333333333
scalar Network600.node520 	rate_of_requesters 	1
scalar Network600.node520 	number_of_resources 	33000
scalar Network600.node520 	time_period 	1
scalar Network600.node520 	number_of_messages 	66
scalar Network600.node520 	discovery_latency 	3432
scalar Network600.node520 	number_of_desired_resources 	20
scalar Network600.node520 	query_homogenity_rate 	33.333333333333
scalar Network600.node520 	qrecord_time 	8122
scalar Network600.node520 	discovery_resolution_rate 	33.333333333333
scalar Network600.node100 	rate_of_requesters 	1
scalar Network600.node100 	number_of_resources 	33000
scalar Network600.node100 	time_period 	2
scalar Network600.node100 	number_of_messages 	7
scalar Network600.node100 	discovery_latency 	3432
scalar Network600.node100 	number_of_desired_resources 	20
scalar Network600.node100 	query_homogenity_rate 	33.333333333333
scalar Network600.node100 	qrecord_time 	8122.156617995
scalar Network600.node100 	discovery_resolution_rate 	33.333333333333
scalar Network600.node20 	rate_of_requesters 	1
scalar Network600.node20 	number_of_resources 	33000
scalar Network600.node20 	time_period 	1
scalar Network600.node20 	number_of_messages 	6
scalar Network600.node20 	discovery_latency 	3432
scalar Network600.node20 	number_of_desired_resources 	20
scalar Network600.node20 	query_homogenity_rate 	33.333333333333
scalar Network600.node20 	qrecord_time 	8146
scalar Network600.node20 	discovery_resolution_rate 	33.333333333333
scalar Network600.node40 	rate_of_requesters 	1
scalar Network600.node40 	number_of_resources 	33000
scalar Network600.node40 	time_period 	1
scalar Network600.node40 	number_of_messages 	27
scalar Network600.node40 	discovery_latency 	3432
scalar Network600.node40 	number_of_desired_resources 	20
scalar Network600.node40 	query_homogenity_rate 	33.333333333333
scalar Network600.node40 	qrecord_time 	8170
scalar Network600.node40 	discovery_resolution_rate 	66.666666666667
scalar Network600.node320 	rate_of_requesters 	1
scalar Network600.node320 	number_of_resources 	33000
scalar Network600.node320 	time_period 	1
scalar Network600.node320 	number_of_messages 	6
scalar Network600.node320 	discovery_latency 	3420
scalar Network600.node320 	number_of_desired_resources 	20
scalar Network600.node320 	query_homogenity_rate 	33.333333333333
scalar Network600.node320 	qrecord_time 	8188
scalar Network600.node320 	discovery_resolution_rate 	33.333333333333
scalar Network600.node290 	rate_of_requesters 	1
scalar Network600.node290 	number_of_resources 	33000
scalar Network600.node290 	time_period 	1
scalar Network600.node290 	number_of_messages 	5
scalar Network600.node290 	discovery_latency 	3432
scalar Network600.node290 	number_of_desired_resources 	20
scalar Network600.node290 	query_homogenity_rate 	33.333333333333
scalar Network600.node290 	qrecord_time 	8188
scalar Network600.node290 	discovery_resolution_rate 	33.333333333333
scalar Network600.node170 	rate_of_requesters 	1
scalar Network600.node170 	number_of_resources 	33000
scalar Network600.node170 	time_period 	1
scalar Network600.node170 	number_of_messages 	10
scalar Network600.node170 	discovery_latency 	3492
scalar Network600.node170 	number_of_desired_resources 	20
scalar Network600.node170 	query_homogenity_rate 	33.333333333333
scalar Network600.node170 	qrecord_time 	8188
scalar Network600.node170 	discovery_resolution_rate 	66.666666666667
scalar Network600.node90 	rate_of_requesters 	1
scalar Network600.node90 	number_of_resources 	33000
scalar Network600.node90 	time_period 	1
scalar Network600.node90 	number_of_messages 	15
scalar Network600.node90 	discovery_latency 	3492
scalar Network600.node90 	number_of_desired_resources 	20
scalar Network600.node90 	query_homogenity_rate 	33.333333333333
scalar Network600.node90 	qrecord_time 	8206
scalar Network600.node90 	discovery_resolution_rate 	66.666666666667
scalar Network600.node570 	rate_of_requesters 	1
scalar Network600.node570 	number_of_resources 	33000
scalar Network600.node570 	time_period 	1
scalar Network600.node570 	number_of_messages 	14
scalar Network600.node570 	discovery_latency 	3504
scalar Network600.node570 	number_of_desired_resources 	20
scalar Network600.node570 	query_homogenity_rate 	33.333333333333
scalar Network600.node570 	qrecord_time 	8218
scalar Network600.node570 	discovery_resolution_rate 	66.666666666667
scalar Network600.node300 	rate_of_requesters 	1
scalar Network600.node300 	number_of_resources 	33000
scalar Network600.node300 	time_period 	1
scalar Network600.node300 	number_of_messages 	28
scalar Network600.node300 	discovery_latency 	3468
scalar Network600.node300 	number_of_desired_resources 	20
scalar Network600.node300 	query_homogenity_rate 	33.333333333333
scalar Network600.node300 	qrecord_time 	8218
scalar Network600.node300 	discovery_resolution_rate 	33.333333333333
scalar Network600.node70 	rate_of_requesters 	1
scalar Network600.node70 	number_of_resources 	33000
scalar Network600.node70 	time_period 	1
scalar Network600.node70 	number_of_messages 	8
scalar Network600.node70 	discovery_latency 	3432
scalar Network600.node70 	number_of_desired_resources 	20
scalar Network600.node70 	query_homogenity_rate 	33.333333333333
scalar Network600.node70 	qrecord_time 	8224
scalar Network600.node70 	discovery_resolution_rate 	33.333333333333
scalar Network600.node360 	rate_of_requesters 	1
scalar Network600.node360 	number_of_resources 	33000
scalar Network600.node360 	time_period 	1
scalar Network600.node360 	number_of_messages 	15
scalar Network600.node360 	discovery_latency 	3540
scalar Network600.node360 	number_of_desired_resources 	20
scalar Network600.node360 	query_homogenity_rate 	33.333333333333
scalar Network600.node360 	qrecord_time 	8230
scalar Network600.node360 	discovery_resolution_rate 	33.333333333333
scalar Network600.node330 	rate_of_requesters 	1
scalar Network600.node330 	number_of_resources 	33000
scalar Network600.node330 	time_period 	1
scalar Network600.node330 	number_of_messages 	37
scalar Network600.node330 	discovery_latency 	3516
scalar Network600.node330 	number_of_desired_resources 	20
scalar Network600.node330 	query_homogenity_rate 	33.333333333333
scalar Network600.node330 	qrecord_time 	8248
scalar Network600.node330 	discovery_resolution_rate 	66.666666666667
scalar Network600.node160 	rate_of_requesters 	1
scalar Network600.node160 	number_of_resources 	33000
scalar Network600.node160 	time_period 	1
scalar Network600.node160 	number_of_messages 	10
scalar Network600.node160 	discovery_latency 	3504
scalar Network600.node160 	number_of_desired_resources 	20
scalar Network600.node160 	query_homogenity_rate 	33.333333333333
scalar Network600.node160 	qrecord_time 	8254
scalar Network600.node160 	discovery_resolution_rate 	33.333333333333
scalar Network600.node230 	rate_of_requesters 	1
scalar Network600.node230 	number_of_resources 	33000
scalar Network600.node230 	time_period 	1
scalar Network600.node230 	number_of_messages 	10
scalar Network600.node230 	discovery_latency 	3552
scalar Network600.node230 	number_of_desired_resources 	20
scalar Network600.node230 	query_homogenity_rate 	33.333333333333
scalar Network600.node230 	qrecord_time 	8260
scalar Network600.node230 	discovery_resolution_rate 	33.333333333333
scalar Network600.node60 	rate_of_requesters 	1
scalar Network600.node60 	number_of_resources 	33000
scalar Network600.node60 	time_period 	1
scalar Network600.node60 	number_of_messages 	55
scalar Network600.node60 	discovery_latency 	3468
scalar Network600.node60 	number_of_desired_resources 	20
scalar Network600.node60 	query_homogenity_rate 	33.333333333333
scalar Network600.node60 	qrecord_time 	8278
scalar Network600.node60 	discovery_resolution_rate 	33.333333333333
scalar Network600.node540 	rate_of_requesters 	1
scalar Network600.node540 	number_of_resources 	33000
scalar Network600.node540 	time_period 	1
scalar Network600.node540 	number_of_messages 	10
scalar Network600.node540 	discovery_latency 	3576
scalar Network600.node540 	number_of_desired_resources 	20
scalar Network600.node540 	query_homogenity_rate 	33.333333333333
scalar Network600.node540 	qrecord_time 	8302
scalar Network600.node540 	discovery_resolution_rate 	33.333333333333
scalar Network600.node560 	rate_of_requesters 	1
scalar Network600.node560 	number_of_resources 	33000
scalar Network600.node560 	time_period 	1
scalar Network600.node560 	number_of_messages 	172
scalar Network600.node560 	discovery_latency 	3552
scalar Network600.node560 	number_of_desired_resources 	20
scalar Network600.node560 	query_homogenity_rate 	33.333333333333
scalar Network600.node560 	qrecord_time 	8302
scalar Network600.node560 	discovery_resolution_rate 	50
scalar Network600.node530 	rate_of_requesters 	1
scalar Network600.node530 	number_of_resources 	33000
scalar Network600.node530 	time_period 	1
scalar Network600.node530 	number_of_messages 	17
scalar Network600.node530 	discovery_latency 	3540
scalar Network600.node530 	number_of_desired_resources 	20
scalar Network600.node530 	query_homogenity_rate 	33.333333333333
scalar Network600.node530 	qrecord_time 	8308
scalar Network600.node530 	discovery_resolution_rate 	33.333333333333
scalar Network600.node50 	rate_of_requesters 	1
scalar Network600.node50 	number_of_resources 	33000
scalar Network600.node50 	time_period 	1
scalar Network600.node50 	number_of_messages 	33
scalar Network600.node50 	discovery_latency 	3624
scalar Network600.node50 	number_of_desired_resources 	20
scalar Network600.node50 	query_homogenity_rate 	33.333333333333
scalar Network600.node50 	qrecord_time 	8314
scalar Network600.node50 	discovery_resolution_rate 	33.333333333333
scalar Network600.node470 	rate_of_requesters 	1
scalar Network600.node470 	number_of_resources 	33000
scalar Network600.node470 	time_period 	1
scalar Network600.node470 	number_of_messages 	166
scalar Network600.node470 	discovery_latency 	3552
scalar Network600.node470 	number_of_desired_resources 	20
scalar Network600.node470 	query_homogenity_rate 	33.333333333333
scalar Network600.node470 	qrecord_time 	8326
scalar Network600.node470 	discovery_resolution_rate 	50
scalar Network600.node490 	rate_of_requesters 	1
scalar Network600.node490 	number_of_resources 	33000
scalar Network600.node490 	time_period 	1
scalar Network600.node490 	number_of_messages 	84
scalar Network600.node490 	discovery_latency 	3516
scalar Network600.node490 	number_of_desired_resources 	20
scalar Network600.node490 	query_homogenity_rate 	33.333333333333
scalar Network600.node490 	qrecord_time 	8332
scalar Network600.node490 	discovery_resolution_rate 	66.666666666667
scalar Network600.node380 	rate_of_requesters 	1
scalar Network600.node380 	number_of_resources 	33000
scalar Network600.node380 	time_period 	1
scalar Network600.node380 	number_of_messages 	72
scalar Network600.node380 	discovery_latency 	3624
scalar Network600.node380 	number_of_desired_resources 	20
scalar Network600.node380 	query_homogenity_rate 	33.333333333333
scalar Network600.node380 	qrecord_time 	8338
scalar Network600.node380 	discovery_resolution_rate 	33.333333333333
scalar Network600.node200 	rate_of_requesters 	1
scalar Network600.node200 	number_of_resources 	33000
scalar Network600.node200 	time_period 	1
scalar Network600.node200 	number_of_messages 	28
scalar Network600.node200 	discovery_latency 	3564
scalar Network600.node200 	number_of_desired_resources 	20
scalar Network600.node200 	query_homogenity_rate 	33.333333333333
scalar Network600.node200 	qrecord_time 	8344
scalar Network600.node200 	discovery_resolution_rate 	33.333333333333
scalar Network600.node280 	rate_of_requesters 	1
scalar Network600.node280 	number_of_resources 	33000
scalar Network600.node280 	time_period 	1
scalar Network600.node280 	number_of_messages 	2
scalar Network600.node280 	discovery_latency 	3636
scalar Network600.node280 	number_of_desired_resources 	20
scalar Network600.node280 	query_homogenity_rate 	33.333333333333
scalar Network600.node280 	qrecord_time 	8344
scalar Network600.node280 	discovery_resolution_rate 	0
scalar Network600.node240 	rate_of_requesters 	1
scalar Network600.node240 	number_of_resources 	33000
scalar Network600.node240 	time_period 	1
scalar Network600.node240 	number_of_messages 	28
scalar Network600.node240 	discovery_latency 	3588
scalar Network600.node240 	number_of_desired_resources 	20
scalar Network600.node240 	query_homogenity_rate 	33.333333333333
scalar Network600.node240 	qrecord_time 	8350
scalar Network600.node240 	discovery_resolution_rate 	33.333333333333
scalar Network600.node130 	rate_of_requesters 	1
scalar Network600.node130 	number_of_resources 	33000
scalar Network600.node130 	time_period 	1
scalar Network600.node130 	number_of_messages 	5
scalar Network600.node130 	discovery_latency 	3636
scalar Network600.node130 	number_of_desired_resources 	20
scalar Network600.node130 	query_homogenity_rate 	33.333333333333
scalar Network600.node130 	qrecord_time 	8374
scalar Network600.node130 	discovery_resolution_rate 	33.333333333333
scalar Network600.node190 	rate_of_requesters 	1
scalar Network600.node190 	number_of_resources 	33000
scalar Network600.node190 	time_period 	1
scalar Network600.node190 	number_of_messages 	2
scalar Network600.node190 	discovery_latency 	3672
scalar Network600.node190 	number_of_desired_resources 	20
scalar Network600.node190 	query_homogenity_rate 	33.333333333333
scalar Network600.node190 	qrecord_time 	8386
scalar Network600.node190 	discovery_resolution_rate 	0
scalar Network600.node140 	rate_of_requesters 	1
scalar Network600.node140 	number_of_resources 	33000
scalar Network600.node140 	time_period 	1
scalar Network600.node140 	number_of_messages 	8
scalar Network600.node140 	discovery_latency 	3648
scalar Network600.node140 	number_of_desired_resources 	20
scalar Network600.node140 	query_homogenity_rate 	33.333333333333
scalar Network600.node140 	qrecord_time 	8422
scalar Network600.node140 	discovery_resolution_rate 	33.333333333333
scalar Network600.node460 	rate_of_requesters 	1
scalar Network600.node460 	number_of_resources 	33000
scalar Network600.node460 	time_period 	1
scalar Network600.node460 	number_of_messages 	2
scalar Network600.node460 	discovery_latency 	3684
scalar Network600.node460 	number_of_desired_resources 	20
scalar Network600.node460 	query_homogenity_rate 	33.333333333333
scalar Network600.node460 	qrecord_time 	8434
scalar Network600.node460 	discovery_resolution_rate 	0
scalar Network600.node370 	rate_of_requesters 	1
scalar Network600.node370 	number_of_resources 	33000
scalar Network600.node370 	time_period 	1
scalar Network600.node370 	number_of_messages 	7
scalar Network600.node370 	discovery_latency 	3708
scalar Network600.node370 	number_of_desired_resources 	20
scalar Network600.node370 	query_homogenity_rate 	33.333333333333
scalar Network600.node370 	qrecord_time 	8446
scalar Network600.node370 	discovery_resolution_rate 	33.333333333333
scalar Network600.node430 	rate_of_requesters 	1
scalar Network600.node430 	number_of_resources 	33000
scalar Network600.node430 	time_period 	1
scalar Network600.node430 	number_of_messages 	0
scalar Network600.node430 	discovery_latency 	3756
scalar Network600.node430 	number_of_desired_resources 	20
scalar Network600.node430 	query_homogenity_rate 	33.333333333333
scalar Network600.node430 	qrecord_time 	8452
scalar Network600.node430 	discovery_resolution_rate 	0
scalar Network600.node110 	rate_of_requesters 	1
scalar Network600.node110 	number_of_resources 	33000
scalar Network600.node110 	time_period 	1
scalar Network600.node110 	number_of_messages 	164
scalar Network600.node110 	discovery_latency 	3660
scalar Network600.node110 	number_of_desired_resources 	20
scalar Network600.node110 	query_homogenity_rate 	33.333333333333
scalar Network600.node110 	qrecord_time 	8458
scalar Network600.node110 	discovery_resolution_rate 	16.666666666667
scalar Network600.node440 	rate_of_requesters 	1
scalar Network600.node440 	number_of_resources 	33000
scalar Network600.node440 	time_period 	1
scalar Network600.node440 	number_of_messages 	23
scalar Network600.node440 	discovery_latency 	3720
scalar Network600.node440 	number_of_desired_resources 	20
scalar Network600.node440 	query_homogenity_rate 	33.333333333333
scalar Network600.node440 	qrecord_time 	8470
scalar Network600.node440 	discovery_resolution_rate 	66.666666666667
scalar Network600.node420 	rate_of_requesters 	1
scalar Network600.node420 	number_of_resources 	33000
scalar Network600.node420 	time_period 	1
scalar Network600.node420 	number_of_messages 	2
scalar Network600.node420 	discovery_latency 	3720
scalar Network600.node420 	number_of_desired_resources 	20
scalar Network600.node420 	query_homogenity_rate 	33.333333333333
scalar Network600.node420 	qrecord_time 	8476
scalar Network600.node420 	discovery_resolution_rate 	0
scalar Network600.node500 	rate_of_requesters 	1
scalar Network600.node500 	number_of_resources 	33000
scalar Network600.node500 	time_period 	1
scalar Network600.node500 	number_of_messages 	15
scalar Network600.node500 	discovery_latency 	3744
scalar Network600.node500 	number_of_desired_resources 	20
scalar Network600.node500 	query_homogenity_rate 	33.333333333333
scalar Network600.node500 	qrecord_time 	8500
scalar Network600.node500 	discovery_resolution_rate 	33.333333333333
scalar Network600.node580 	rate_of_requesters 	1
scalar Network600.node580 	number_of_resources 	33000
scalar Network600.node580 	time_period 	1
scalar Network600.node580 	number_of_messages 	4
scalar Network600.node580 	discovery_latency 	3768
scalar Network600.node580 	number_of_desired_resources 	20
scalar Network600.node580 	query_homogenity_rate 	33.333333333333
scalar Network600.node580 	qrecord_time 	8500
scalar Network600.node580 	discovery_resolution_rate 	33.333333333333
scalar Network600.node510 	rate_of_requesters 	1
scalar Network600.node510 	number_of_resources 	33000
scalar Network600.node510 	time_period 	1
scalar Network600.node510 	number_of_messages 	12
scalar Network600.node510 	discovery_latency 	3792
scalar Network600.node510 	number_of_desired_resources 	20
scalar Network600.node510 	query_homogenity_rate 	33.333333333333
scalar Network600.node510 	qrecord_time 	8506
scalar Network600.node510 	discovery_resolution_rate 	33.333333333333
scalar Network600.node550 	rate_of_requesters 	1
scalar Network600.node550 	number_of_resources 	33000
scalar Network600.node550 	time_period 	1
scalar Network600.node550 	number_of_messages 	4
scalar Network600.node550 	discovery_latency 	3780
scalar Network600.node550 	number_of_desired_resources 	20
scalar Network600.node550 	query_homogenity_rate 	33.333333333333
scalar Network600.node550 	qrecord_time 	8530
scalar Network600.node550 	discovery_resolution_rate 	33.333333333333
scalar Network600.node100 	rate_of_requesters 	1
scalar Network600.node100 	number_of_resources 	33000
scalar Network600.node100 	time_period 	1
scalar Network600.node100 	number_of_messages 	2
scalar Network600.node100 	discovery_latency 	3840
scalar Network600.node100 	number_of_desired_resources 	20
scalar Network600.node100 	query_homogenity_rate 	33.333333333333
scalar Network600.node100 	qrecord_time 	8530
scalar Network600.node100 	discovery_resolution_rate 	0
scalar Network600.node0 	rate_of_requesters 	1
scalar Network600.node0 	number_of_resources 	33000
scalar Network600.node0 	time_period 	1
scalar Network600.node0 	number_of_messages 	0
scalar Network600.node0 	discovery_latency 	3792
scalar Network600.node0 	number_of_desired_resources 	20
scalar Network600.node0 	query_homogenity_rate 	33.333333333333
scalar Network600.node0 	qrecord_time 	8536
scalar Network600.node0 	discovery_resolution_rate 	0
scalar Network600.node410 	rate_of_requesters 	1
scalar Network600.node410 	number_of_resources 	33000
scalar Network600.node410 	time_period 	1
scalar Network600.node410 	number_of_messages 	0
scalar Network600.node410 	discovery_latency 	3852
scalar Network600.node410 	number_of_desired_resources 	20
scalar Network600.node410 	query_homogenity_rate 	33.333333333333
scalar Network600.node410 	qrecord_time 	8548
scalar Network600.node410 	discovery_resolution_rate 	0
scalar Network600.node310 	rate_of_requesters 	1
scalar Network600.node310 	number_of_resources 	33000
scalar Network600.node310 	time_period 	1
scalar Network600.node310 	number_of_messages 	31
scalar Network600.node310 	discovery_latency 	3828
scalar Network600.node310 	number_of_desired_resources 	20
scalar Network600.node310 	query_homogenity_rate 	33.333333333333
scalar Network600.node310 	qrecord_time 	8560
scalar Network600.node310 	discovery_resolution_rate 	33.333333333333
scalar Network600.node120 	rate_of_requesters 	1
scalar Network600.node120 	number_of_resources 	33000
scalar Network600.node120 	time_period 	2
scalar Network600.node120 	number_of_messages 	2
scalar Network600.node120 	discovery_latency 	3624
scalar Network600.node120 	number_of_desired_resources 	20
scalar Network600.node120 	query_homogenity_rate 	33.333333333333
scalar Network600.node120 	qrecord_time 	8585.974458788
scalar Network600.node120 	discovery_resolution_rate 	0
scalar Network600.node350 	rate_of_requesters 	1
scalar Network600.node350 	number_of_resources 	33000
scalar Network600.node350 	time_period 	1
scalar Network600.node350 	number_of_messages 	15
scalar Network600.node350 	discovery_latency 	3840
scalar Network600.node350 	number_of_desired_resources 	20
scalar Network600.node350 	query_homogenity_rate 	33.333333333333
scalar Network600.node350 	qrecord_time 	8590
scalar Network600.node350 	discovery_resolution_rate 	66.666666666667
scalar Network600.node590 	rate_of_requesters 	1
scalar Network600.node590 	number_of_resources 	33000
scalar Network600.node590 	time_period 	1
scalar Network600.node590 	number_of_messages 	10
scalar Network600.node590 	discovery_latency 	3840
scalar Network600.node590 	number_of_desired_resources 	20
scalar Network600.node590 	query_homogenity_rate 	33.333333333333
scalar Network600.node590 	qrecord_time 	8608
scalar Network600.node590 	discovery_resolution_rate 	66.666666666667
scalar Network600.node120 	rate_of_requesters 	1
scalar Network600.node120 	number_of_resources 	33000
scalar Network600.node120 	time_period 	1
scalar Network600.node120 	number_of_messages 	2
scalar Network600.node120 	discovery_latency 	3816
scalar Network600.node120 	number_of_desired_resources 	20
scalar Network600.node120 	query_homogenity_rate 	33.333333333333
scalar Network600.node120 	qrecord_time 	8608
scalar Network600.node120 	discovery_resolution_rate 	0
scalar Network600.node210 	rate_of_requesters 	1
scalar Network600.node210 	number_of_resources 	33000
scalar Network600.node210 	time_period 	1
scalar Network600.node210 	number_of_messages 	2
scalar Network600.node210 	discovery_latency 	3900
scalar Network600.node210 	number_of_desired_resources 	20
scalar Network600.node210 	query_homogenity_rate 	33.333333333333
scalar Network600.node210 	qrecord_time 	8614
scalar Network600.node210 	discovery_resolution_rate 	0
scalar Network600.node220 	rate_of_requesters 	1
scalar Network600.node220 	number_of_resources 	33000
scalar Network600.node220 	time_period 	1
scalar Network600.node220 	number_of_messages 	189
scalar Network600.node220 	discovery_latency 	3828
scalar Network600.node220 	number_of_desired_resources 	20
scalar Network600.node220 	query_homogenity_rate 	33.333333333333
scalar Network600.node220 	qrecord_time 	8620
scalar Network600.node220 	discovery_resolution_rate 	16.666666666667
scalar Network600.node180 	rate_of_requesters 	1
scalar Network600.node180 	number_of_resources 	33000
scalar Network600.node180 	time_period 	1
scalar Network600.node180 	number_of_messages 	2
scalar Network600.node180 	discovery_latency 	3828
scalar Network600.node180 	number_of_desired_resources 	20
scalar Network600.node180 	query_homogenity_rate 	33.333333333333
scalar Network600.node180 	qrecord_time 	8626
scalar Network600.node180 	discovery_resolution_rate 	0
scalar Network600.node260 	rate_of_requesters 	1
scalar Network600.node260 	number_of_resources 	33000
scalar Network600.node260 	time_period 	1
scalar Network600.node260 	number_of_messages 	2
scalar Network600.node260 	discovery_latency 	3936
scalar Network600.node260 	number_of_desired_resources 	20
scalar Network600.node260 	query_homogenity_rate 	33.333333333333
scalar Network600.node260 	qrecord_time 	8626
scalar Network600.node260 	discovery_resolution_rate 	0
scalar Network600.node80 	rate_of_requesters 	1
scalar Network600.node80 	number_of_resources 	33000
scalar Network600.node80 	time_period 	1
scalar Network600.node80 	number_of_messages 	28
scalar Network600.node80 	discovery_latency 	3912
scalar Network600.node80 	number_of_desired_resources 	20
scalar Network600.node80 	query_homogenity_rate 	33.333333333333
scalar Network600.node80 	qrecord_time 	8626
scalar Network600.node80 	discovery_resolution_rate 	66.666666666667
scalar Network600.node250 	rate_of_requesters 	1
scalar Network600.node250 	number_of_resources 	33000
scalar Network600.node250 	time_period 	1
scalar Network600.node250 	number_of_messages 	2
scalar Network600.node250 	discovery_latency 	3888
scalar Network600.node250 	number_of_desired_resources 	20
scalar Network600.node250 	query_homogenity_rate 	33.333333333333
scalar Network600.node250 	qrecord_time 	8638
scalar Network600.node250 	discovery_resolution_rate 	0
scalar Network600.node450 	rate_of_requesters 	1
scalar Network600.node450 	number_of_resources 	33000
scalar Network600.node450 	time_period 	1
scalar Network600.node450 	number_of_messages 	2
scalar Network600.node450 	discovery_latency 	3900
scalar Network600.node450 	number_of_desired_resources 	20
scalar Network600.node450 	query_homogenity_rate 	33.333333333333
scalar Network600.node450 	qrecord_time 	8668
scalar Network600.node450 	discovery_resolution_rate 	0
scalar Network600.node480 	rate_of_requesters 	1
scalar Network600.node480 	number_of_resources 	33000
scalar Network600.node480 	time_period 	2
scalar Network600.node480 	number_of_messages 	0
scalar Network600.node480 	discovery_latency 	3720
scalar Network600.node480 	number_of_desired_resources 	20
scalar Network600.node480 	query_homogenity_rate 	33.333333333333
scalar Network600.node480 	qrecord_time 	8684.086756318
scalar Network600.node480 	discovery_resolution_rate 	0
scalar Network600.node50 	rate_of_requesters 	1
scalar Network600.node50 	number_of_resources 	33000
scalar Network600.node50 	time_period 	2
scalar Network600.node50 	number_of_messages 	2
scalar Network600.node50 	discovery_latency 	3804
scalar Network600.node50 	number_of_desired_resources 	20
scalar Network600.node50 	query_homogenity_rate 	33.333333333333
scalar Network600.node50 	qrecord_time 	8879.34076206
scalar Network600.node50 	discovery_resolution_rate 	0
scalar Network600.node500 	rate_of_requesters 	1
scalar Network600.node500 	number_of_resources 	33000
scalar Network600.node500 	time_period 	2
scalar Network600.node500 	number_of_messages 	2
scalar Network600.node500 	discovery_latency 	3684
scalar Network600.node500 	number_of_desired_resources 	20
scalar Network600.node500 	query_homogenity_rate 	33.333333333333
scalar Network600.node500 	qrecord_time 	8951.31934156
scalar Network600.node500 	discovery_resolution_rate 	0
scalar Network600.node160 	rate_of_requesters 	1
scalar Network600.node160 	number_of_resources 	33000
scalar Network600.node160 	time_period 	2
scalar Network600.node160 	number_of_messages 	2
scalar Network600.node160 	discovery_latency 	3588
scalar Network600.node160 	number_of_desired_resources 	20
scalar Network600.node160 	query_homogenity_rate 	33.333333333333
scalar Network600.node160 	qrecord_time 	8981.980073022
scalar Network600.node160 	discovery_resolution_rate 	0
scalar Network600.node130 	rate_of_requesters 	1
scalar Network600.node130 	number_of_resources 	33000
scalar Network600.node130 	time_period 	2
scalar Network600.node130 	number_of_messages 	2
scalar Network600.node130 	discovery_latency 	3708
scalar Network600.node130 	number_of_desired_resources 	20
scalar Network600.node130 	query_homogenity_rate 	33.333333333333
scalar Network600.node130 	qrecord_time 	9241.795288142
scalar Network600.node130 	discovery_resolution_rate 	0
scalar Network600.node210 	rate_of_requesters 	1
scalar Network600.node210 	number_of_resources 	33000
scalar Network600.node210 	time_period 	2
scalar Network600.node210 	number_of_messages 	2
scalar Network600.node210 	discovery_latency 	3660
scalar Network600.node210 	number_of_desired_resources 	20
scalar Network600.node210 	query_homogenity_rate 	33.333333333333
scalar Network600.node210 	qrecord_time 	9340.55132656
scalar Network600.node210 	discovery_resolution_rate 	0
scalar Network600.node220 	rate_of_requesters 	1
scalar Network600.node220 	number_of_resources 	33000
scalar Network600.node220 	time_period 	2
scalar Network600.node220 	number_of_messages 	2
scalar Network600.node220 	discovery_latency 	3708
scalar Network600.node220 	number_of_desired_resources 	20
scalar Network600.node220 	query_homogenity_rate 	33.333333333333
scalar Network600.node220 	qrecord_time 	9538.197188677
scalar Network600.node220 	discovery_resolution_rate 	0
scalar Network600.node110 	rate_of_requesters 	1
scalar Network600.node110 	number_of_resources 	33000
scalar Network600.node110 	time_period 	2
scalar Network600.node110 	number_of_messages 	2
scalar Network600.node110 	discovery_latency 	3864
scalar Network600.node110 	number_of_desired_resources 	20
scalar Network600.node110 	query_homogenity_rate 	33.333333333333
scalar Network600.node110 	qrecord_time 	9613.011644751
scalar Network600.node110 	discovery_resolution_rate 	0
scalar Network600.node380 	rate_of_requesters 	1
scalar Network600.node380 	number_of_resources 	33000
scalar Network600.node380 	time_period 	2
scalar Network600.node380 	number_of_messages 	2
scalar Network600.node380 	discovery_latency 	3804
scalar Network600.node380 	number_of_desired_resources 	20
scalar Network600.node380 	query_homogenity_rate 	33.333333333333
scalar Network600.node380 	qrecord_time 	9688.303397424
scalar Network600.node380 	discovery_resolution_rate 	0
scalar Network600.node430 	rate_of_requesters 	1
scalar Network600.node430 	number_of_resources 	33000
scalar Network600.node430 	time_period 	2
scalar Network600.node430 	number_of_messages 	0
scalar Network600.node430 	discovery_latency 	3792
scalar Network600.node430 	number_of_desired_resources 	20
scalar Network600.node430 	query_homogenity_rate 	33.333333333333
scalar Network600.node430 	qrecord_time 	9691.984291885
scalar Network600.node430 	discovery_resolution_rate 	0
scalar Network600.node300 	rate_of_requesters 	1
scalar Network600.node300 	number_of_resources 	33000
scalar Network600.node300 	time_period 	2
scalar Network600.node300 	number_of_messages 	2
scalar Network600.node300 	discovery_latency 	3756
scalar Network600.node300 	number_of_desired_resources 	20
scalar Network600.node300 	query_homogenity_rate 	33.333333333333
scalar Network600.node300 	qrecord_time 	9726.073949698
scalar Network600.node300 	discovery_resolution_rate 	0
scalar Network600.node70 	rate_of_requesters 	1
scalar Network600.node70 	number_of_resources 	33000
scalar Network600.node70 	time_period 	2
scalar Network600.node70 	number_of_messages 	2
scalar Network600.node70 	discovery_latency 	3888
scalar Network600.node70 	number_of_desired_resources 	20
scalar Network600.node70 	query_homogenity_rate 	33.333333333333
scalar Network600.node70 	qrecord_time 	9813.654039081
scalar Network600.node70 	discovery_resolution_rate 	0
scalar Network600.node390 	rate_of_requesters 	1
scalar Network600.node390 	number_of_resources 	33000
scalar Network600.node390 	time_period 	2
scalar Network600.node390 	number_of_messages 	2
scalar Network600.node390 	discovery_latency 	3816
scalar Network600.node390 	number_of_desired_resources 	20
scalar Network600.node390 	query_homogenity_rate 	33.333333333333
scalar Network600.node390 	qrecord_time 	9854.305297901
scalar Network600.node390 	discovery_resolution_rate 	0
scalar Network600.node80 	rate_of_requesters 	1
scalar Network600.node80 	number_of_resources 	33000
scalar Network600.node80 	time_period 	2
scalar Network600.node80 	number_of_messages 	2
scalar Network600.node80 	discovery_latency 	3756
scalar Network600.node80 	number_of_desired_resources 	20
scalar Network600.node80 	query_homogenity_rate 	33.333333333333
scalar Network600.node80 	qrecord_time 	9873.096823786
scalar Network600.node80 	discovery_resolution_rate 	0
scalar Network600.node430 	rate_of_requesters 	1
scalar Network600.node430 	number_of_resources 	33000
scalar Network600.node430 	time_period 	3
scalar Network600.node430 	number_of_messages 	0
scalar Network600.node430 	discovery_latency 	3708
scalar Network600.node430 	number_of_desired_resources 	20
scalar Network600.node430 	query_homogenity_rate 	33.333333333333
scalar Network600.node430 	qrecord_time 	9875.245904065
scalar Network600.node430 	discovery_resolution_rate 	0
scalar Network600.node510 	rate_of_requesters 	1
scalar Network600.node510 	number_of_resources 	33000
scalar Network600.node510 	time_period 	2
scalar Network600.node510 	number_of_messages 	2
scalar Network600.node510 	discovery_latency 	3864
scalar Network600.node510 	number_of_desired_resources 	20
scalar Network600.node510 	query_homogenity_rate 	33.333333333333
scalar Network600.node510 	qrecord_time 	9928.802636125
scalar Network600.node510 	discovery_resolution_rate 	0
scalar Network600.node40 	rate_of_requesters 	1
scalar Network600.node40 	number_of_resources 	33000
scalar Network600.node40 	time_period 	2
scalar Network600.node40 	number_of_messages 	2
scalar Network600.node40 	discovery_latency 	3924
scalar Network600.node40 	number_of_desired_resources 	20
scalar Network600.node40 	query_homogenity_rate 	33.333333333333
scalar Network600.node40 	qrecord_time 	9932.561127517
scalar Network600.node40 	discovery_resolution_rate 	0
scalar Network600.node130 	rate_of_requesters 	1
scalar Network600.node130 	number_of_resources 	33000
scalar Network600.node130 	time_period 	3
scalar Network600.node130 	number_of_messages 	2
scalar Network600.node130 	discovery_latency 	3624
scalar Network600.node130 	number_of_desired_resources 	20
scalar Network600.node130 	query_homogenity_rate 	33.333333333333
scalar Network600.node130 	qrecord_time 	10181.338512485
scalar Network600.node130 	discovery_resolution_rate 	0
scalar Network600.node50 	rate_of_requesters 	1
scalar Network600.node50 	number_of_resources 	33000
scalar Network600.node50 	time_period 	3
scalar Network600.node50 	number_of_messages 	2
scalar Network600.node50 	discovery_latency 	3912
scalar Network600.node50 	number_of_desired_resources 	20
scalar Network600.node50 	query_homogenity_rate 	33.333333333333
scalar Network600.node50 	qrecord_time 	10430.480510567
scalar Network600.node50 	discovery_resolution_rate 	0
scalar Network600.node460 	rate_of_requesters 	1
scalar Network600.node460 	number_of_resources 	33000
scalar Network600.node460 	time_period 	2
scalar Network600.node460 	number_of_messages 	2
scalar Network600.node460 	discovery_latency 	3816
scalar Network600.node460 	number_of_desired_resources 	20
scalar Network600.node460 	query_homogenity_rate 	33.333333333333
scalar Network600.node460 	qrecord_time 	10585.956483875
scalar Network600.node460 	discovery_resolution_rate 	0
scalar Network600.node180 	rate_of_requesters 	1
scalar Network600.node180 	number_of_resources 	33000
scalar Network600.node180 	time_period 	2
scalar Network600.node180 	number_of_messages 	2
scalar Network600.node180 	discovery_latency 	3768
scalar Network600.node180 	number_of_desired_resources 	20
scalar Network600.node180 	query_homogenity_rate 	33.333333333333
scalar Network600.node180 	qrecord_time 	10634.094623673
scalar Network600.node180 	discovery_resolution_rate 	0
scalar Network600.node490 	rate_of_requesters 	1
scalar Network600.node490 	number_of_resources 	33000
scalar Network600.node490 	time_period 	2
scalar Network600.node490 	number_of_messages 	2
scalar Network600.node490 	discovery_latency 	3876
scalar Network600.node490 	number_of_desired_resources 	20
scalar Network600.node490 	query_homogenity_rate 	33.333333333333
scalar Network600.node490 	qrecord_time 	10650.149446097
scalar Network600.node490 	discovery_resolution_rate 	0
scalar Network600.node470 	rate_of_requesters 	1
scalar Network600.node470 	number_of_resources 	33000
scalar Network600.node470 	time_period 	2
scalar Network600.node470 	number_of_messages 	2
scalar Network600.node470 	discovery_latency 	3732
scalar Network600.node470 	number_of_desired_resources 	20
scalar Network600.node470 	query_homogenity_rate 	33.333333333333
scalar Network600.node470 	qrecord_time 	10719.071656698
scalar Network600.node470 	discovery_resolution_rate 	0
scalar Network600.node200 	rate_of_requesters 	1
scalar Network600.node200 	number_of_resources 	33000
scalar Network600.node200 	time_period 	2
scalar Network600.node200 	number_of_messages 	2
scalar Network600.node200 	discovery_latency 	3792
scalar Network600.node200 	number_of_desired_resources 	20
scalar Network600.node200 	query_homogenity_rate 	33.333333333333
scalar Network600.node200 	qrecord_time 	10733.413926531
scalar Network600.node200 	discovery_resolution_rate 	0
scalar Network600.node50 	rate_of_requesters 	1
scalar Network600.node50 	number_of_resources 	33000
scalar Network600.node50 	time_period 	4
scalar Network600.node50 	number_of_messages 	2
scalar Network600.node50 	discovery_latency 	3780
scalar Network600.node50 	number_of_desired_resources 	20
scalar Network600.node50 	query_homogenity_rate 	33.333333333333
scalar Network600.node50 	qrecord_time 	10743.599730388
scalar Network600.node50 	discovery_resolution_rate 	0
scalar Network600.node450 	rate_of_requesters 	1
scalar Network600.node450 	number_of_resources 	33000
scalar Network600.node450 	time_period 	2
scalar Network600.node450 	number_of_messages 	2
scalar Network600.node450 	discovery_latency 	3900
scalar Network600.node450 	number_of_desired_resources 	20
scalar Network600.node450 	query_homogenity_rate 	33.333333333333
scalar Network600.node450 	qrecord_time 	10837.767105655
scalar Network600.node450 	discovery_resolution_rate 	0
scalar Network600.node470 	rate_of_requesters 	1
scalar Network600.node470 	number_of_resources 	33000
scalar Network600.node470 	time_period 	3
scalar Network600.node470 	number_of_messages 	2
scalar Network600.node470 	discovery_latency 	3720
scalar Network600.node470 	number_of_desired_resources 	20
scalar Network600.node470 	query_homogenity_rate 	33.333333333333
scalar Network600.node470 	qrecord_time 	10849.614181448
scalar Network600.node470 	discovery_resolution_rate 	0
scalar Network600.node590 	rate_of_requesters 	1
scalar Network600.node590 	number_of_resources 	33000
scalar Network600.node590 	time_period 	2
scalar Network600.node590 	number_of_messages 	2
scalar Network600.node590 	discovery_latency 	3720
scalar Network600.node590 	number_of_desired_resources 	20
scalar Network600.node590 	query_homogenity_rate 	33.333333333333
scalar Network600.node590 	qrecord_time 	10912.051598374
scalar Network600.node590 	discovery_resolution_rate 	0
scalar Network600.node30 	rate_of_requesters 	1
scalar Network600.node30 	number_of_resources 	33000
scalar Network600.node30 	time_period 	2
scalar Network600.node30 	number_of_messages 	2
scalar Network600.node30 	discovery_latency 	3732
scalar Network600.node30 	number_of_desired_resources 	20
scalar Network600.node30 	query_homogenity_rate 	33.333333333333
scalar Network600.node30 	qrecord_time 	10916.729595112
scalar Network600.node30 	discovery_resolution_rate 	0
scalar Network600.node500 	rate_of_requesters 	1
scalar Network600.node500 	number_of_resources 	33000
scalar Network600.node500 	time_period 	3
scalar Network600.node500 	number_of_messages 	2
scalar Network600.node500 	discovery_latency 	3828
scalar Network600.node500 	number_of_desired_resources 	20
scalar Network600.node500 	query_homogenity_rate 	33.333333333333
scalar Network600.node500 	qrecord_time 	10924.584082807
scalar Network600.node500 	discovery_resolution_rate 	0
scalar Network600.node70 	rate_of_requesters 	1
scalar Network600.node70 	number_of_resources 	33000
scalar Network600.node70 	time_period 	3
scalar Network600.node70 	number_of_messages 	2
scalar Network600.node70 	discovery_latency 	3732
scalar Network600.node70 	number_of_desired_resources 	20
scalar Network600.node70 	query_homogenity_rate 	33.333333333333
scalar Network600.node70 	qrecord_time 	10930.372383758
scalar Network600.node70 	discovery_resolution_rate 	0
scalar Network600.node310 	rate_of_requesters 	1
scalar Network600.node310 	number_of_resources 	33000
scalar Network600.node310 	time_period 	2
scalar Network600.node310 	number_of_messages 	2
scalar Network600.node310 	discovery_latency 	3720
scalar Network600.node310 	number_of_desired_resources 	20
scalar Network600.node310 	query_homogenity_rate 	33.333333333333
scalar Network600.node310 	qrecord_time 	10977.251557876
scalar Network600.node310 	discovery_resolution_rate 	0
scalar Network600.node340 	rate_of_requesters 	1
scalar Network600.node340 	number_of_resources 	33000
scalar Network600.node340 	time_period 	2
scalar Network600.node340 	number_of_messages 	2
scalar Network600.node340 	discovery_latency 	3756
scalar Network600.node340 	number_of_desired_resources 	20
scalar Network600.node340 	query_homogenity_rate 	33.333333333333
scalar Network600.node340 	qrecord_time 	11057.223919676
scalar Network600.node340 	discovery_resolution_rate 	0
scalar Network600.node190 	rate_of_requesters 	1
scalar Network600.node190 	number_of_resources 	33000
scalar Network600.node190 	time_period 	2
scalar Network600.node190 	number_of_messages 	2
scalar Network600.node190 	discovery_latency 	3864
scalar Network600.node190 	number_of_desired_resources 	20
scalar Network600.node190 	query_homogenity_rate 	33.333333333333
scalar Network600.node190 	qrecord_time 	11141.663854679
scalar Network600.node190 	discovery_resolution_rate 	0
scalar Network600.node550 	rate_of_requesters 	1
scalar Network600.node550 	number_of_resources 	33000
scalar Network600.node550 	time_period 	2
scalar Network600.node550 	number_of_messages 	2
scalar Network600.node550 	discovery_latency 	3768
scalar Network600.node550 	number_of_desired_resources 	20
scalar Network600.node550 	query_homogenity_rate 	33.333333333333
scalar Network600.node550 	qrecord_time 	11342.038689106
scalar Network600.node550 	discovery_resolution_rate 	0
scalar Network600.node220 	rate_of_requesters 	1
scalar Network600.node220 	number_of_resources 	33000
scalar Network600.node220 	time_period 	3
scalar Network600.node220 	number_of_messages 	2
scalar Network600.node220 	discovery_latency 	3708
scalar Network600.node220 	number_of_desired_resources 	20
scalar Network600.node220 	query_homogenity_rate 	33.333333333333
scalar Network600.node220 	qrecord_time 	11584.254697807
scalar Network600.node220 	discovery_resolution_rate 	0
scalar Network600.node500 	rate_of_requesters 	1
scalar Network600.node500 	number_of_resources 	33000
scalar Network600.node500 	time_period 	4
scalar Network600.node500 	number_of_messages 	2
scalar Network600.node500 	discovery_latency 	3888
scalar Network600.node500 	number_of_desired_resources 	20
scalar Network600.node500 	query_homogenity_rate 	33.333333333333
scalar Network600.node500 	qrecord_time 	11682.951083697
scalar Network600.node500 	discovery_resolution_rate 	0
scalar Network600.node520 	rate_of_requesters 	1
scalar Network600.node520 	number_of_resources 	33000
scalar Network600.node520 	time_period 	2
scalar Network600.node520 	number_of_messages 	2
scalar Network600.node520 	discovery_latency 	3792
scalar Network600.node520 	number_of_desired_resources 	20
scalar Network600.node520 	query_homogenity_rate 	33.333333333333
scalar Network600.node520 	qrecord_time 	11786.942111888
scalar Network600.node520 	discovery_resolution_rate 	0
scalar Network600.node400 	rate_of_requesters 	1
scalar Network600.node400 	number_of_resources 	33000
scalar Network600.node400 	time_period 	2
scalar Network600.node400 	number_of_messages 	69
scalar Network600.node400 	discovery_latency 	582
scalar Network600.node400 	number_of_desired_resources 	20
scalar Network600.node400 	query_homogenity_rate 	33.333333333333
scalar Network600.node400 	qrecord_time 	11943.921252898
scalar Network600.node400 	discovery_resolution_rate 	100
scalar Network600.node70 	rate_of_requesters 	1
scalar Network600.node70 	number_of_resources 	33000
scalar Network600.node70 	time_period 	4
scalar Network600.node70 	number_of_messages 	16
scalar Network600.node70 	discovery_latency 	3444
scalar Network600.node70 	number_of_desired_resources 	20
scalar Network600.node70 	query_homogenity_rate 	33.333333333333
scalar Network600.node70 	qrecord_time 	11963.537183103
scalar Network600.node70 	discovery_resolution_rate 	33.333333333333
scalar Network600.node470 	rate_of_requesters 	1
scalar Network600.node470 	number_of_resources 	33000
scalar Network600.node470 	time_period 	4
scalar Network600.node470 	number_of_messages 	126
scalar Network600.node470 	discovery_latency 	2220
scalar Network600.node470 	number_of_desired_resources 	20
scalar Network600.node470 	query_homogenity_rate 	33.333333333333
scalar Network600.node470 	qrecord_time 	12064.381082825
scalar Network600.node470 	discovery_resolution_rate 	100
scalar Network600.node170 	rate_of_requesters 	1
scalar Network600.node170 	number_of_resources 	33000
scalar Network600.node170 	time_period 	2
scalar Network600.node170 	number_of_messages 	0
scalar Network600.node170 	discovery_latency 	3840
scalar Network600.node170 	number_of_desired_resources 	20
scalar Network600.node170 	query_homogenity_rate 	33.333333333333
scalar Network600.node170 	qrecord_time 	12073.095507499
scalar Network600.node170 	discovery_resolution_rate 	0
scalar Network600.node160 	rate_of_requesters 	1
scalar Network600.node160 	number_of_resources 	33000
scalar Network600.node160 	time_period 	3
scalar Network600.node160 	number_of_messages 	37
scalar Network600.node160 	discovery_latency 	3552
scalar Network600.node160 	number_of_desired_resources 	20
scalar Network600.node160 	query_homogenity_rate 	33.333333333333
scalar Network600.node160 	qrecord_time 	12115.113103263
scalar Network600.node160 	discovery_resolution_rate 	33.333333333333
scalar Network600.node550 	rate_of_requesters 	1
scalar Network600.node550 	number_of_resources 	33000
scalar Network600.node550 	time_period 	3
scalar Network600.node550 	number_of_messages 	2
scalar Network600.node550 	discovery_latency 	3840
scalar Network600.node550 	number_of_desired_resources 	20
scalar Network600.node550 	query_homogenity_rate 	33.333333333333
scalar Network600.node550 	qrecord_time 	12182.816995586
scalar Network600.node550 	discovery_resolution_rate 	0
scalar Network600.node530 	rate_of_requesters 	1
scalar Network600.node530 	number_of_resources 	33000
scalar Network600.node530 	time_period 	2
scalar Network600.node530 	number_of_messages 	63
scalar Network600.node530 	discovery_latency 	3516
scalar Network600.node530 	number_of_desired_resources 	20
scalar Network600.node530 	query_homogenity_rate 	33.333333333333
scalar Network600.node530 	qrecord_time 	12329.934704392
scalar Network600.node530 	discovery_resolution_rate 	33.333333333333
scalar Network600.node520 	rate_of_requesters 	1
scalar Network600.node520 	number_of_resources 	33000
scalar Network600.node520 	time_period 	3
scalar Network600.node520 	number_of_messages 	2
scalar Network600.node520 	discovery_latency 	3768
scalar Network600.node520 	number_of_desired_resources 	20
scalar Network600.node520 	query_homogenity_rate 	33.333333333333
scalar Network600.node520 	qrecord_time 	12334.401321047
scalar Network600.node520 	discovery_resolution_rate 	0
scalar Network600.node360 	rate_of_requesters 	1
scalar Network600.node360 	number_of_resources 	33000
scalar Network600.node360 	time_period 	2
scalar Network600.node360 	number_of_messages 	153
scalar Network600.node360 	discovery_latency 	3420
scalar Network600.node360 	number_of_desired_resources 	20
scalar Network600.node360 	query_homogenity_rate 	33.333333333333
scalar Network600.node360 	qrecord_time 	12402.533868077
scalar Network600.node360 	discovery_resolution_rate 	33.333333333333
scalar Network600.node180 	rate_of_requesters 	1
scalar Network600.node180 	number_of_resources 	33000
scalar Network600.node180 	time_period 	3
scalar Network600.node180 	number_of_messages 	2
scalar Network600.node180 	discovery_latency 	3768
scalar Network600.node180 	number_of_desired_resources 	20
scalar Network600.node180 	query_homogenity_rate 	33.333333333333
scalar Network600.node180 	qrecord_time 	12456.730772547
scalar Network600.node180 	discovery_resolution_rate 	0
scalar Network600.node390 	rate_of_requesters 	1
scalar Network600.node390 	number_of_resources 	33000
scalar Network600.node390 	time_period 	3
scalar Network600.node390 	number_of_messages 	47
scalar Network600.node390 	discovery_latency 	3516
scalar Network600.node390 	number_of_desired_resources 	20
scalar Network600.node390 	query_homogenity_rate 	33.333333333333
scalar Network600.node390 	qrecord_time 	12460.632769778
scalar Network600.node390 	discovery_resolution_rate 	33.333333333333
scalar Network600.node50 	rate_of_requesters 	1
scalar Network600.node50 	number_of_resources 	33000
scalar Network600.node50 	time_period 	5
scalar Network600.node50 	number_of_messages 	2
scalar Network600.node50 	discovery_latency 	3852
scalar Network600.node50 	number_of_desired_resources 	20
scalar Network600.node50 	query_homogenity_rate 	33.333333333333
scalar Network600.node50 	qrecord_time 	12741.398093836
scalar Network600.node50 	discovery_resolution_rate 	0
scalar Network600.node340 	rate_of_requesters 	1
scalar Network600.node340 	number_of_resources 	33000
scalar Network600.node340 	time_period 	3
scalar Network600.node340 	number_of_messages 	69
scalar Network600.node340 	discovery_latency 	3816
scalar Network600.node340 	number_of_desired_resources 	20
scalar Network600.node340 	query_homogenity_rate 	33.333333333333
scalar Network600.node340 	qrecord_time 	12785.80009931
scalar Network600.node340 	discovery_resolution_rate 	33.333333333333
scalar Network600.node230 	rate_of_requesters 	1
scalar Network600.node230 	number_of_resources 	33000
scalar Network600.node230 	time_period 	2
scalar Network600.node230 	number_of_messages 	8
scalar Network600.node230 	discovery_latency 	3852
scalar Network600.node230 	number_of_desired_resources 	20
scalar Network600.node230 	query_homogenity_rate 	33.333333333333
scalar Network600.node230 	qrecord_time 	12787.561468527
scalar Network600.node230 	discovery_resolution_rate 	33.333333333333
scalar Network600.node260 	rate_of_requesters 	1
scalar Network600.node260 	number_of_resources 	33000
scalar Network600.node260 	time_period 	2
scalar Network600.node260 	number_of_messages 	21
scalar Network600.node260 	discovery_latency 	3564
scalar Network600.node260 	number_of_desired_resources 	20
scalar Network600.node260 	query_homogenity_rate 	33.333333333333
scalar Network600.node260 	qrecord_time 	12799.78649323
scalar Network600.node260 	discovery_resolution_rate 	33.333333333333
scalar Network600.node150 	rate_of_requesters 	1
scalar Network600.node150 	number_of_resources 	33000
scalar Network600.node150 	time_period 	2
scalar Network600.node150 	number_of_messages 	2
scalar Network600.node150 	discovery_latency 	3804
scalar Network600.node150 	number_of_desired_resources 	20
scalar Network600.node150 	query_homogenity_rate 	33.333333333333
scalar Network600.node150 	qrecord_time 	12899.945587088
scalar Network600.node150 	discovery_resolution_rate 	0
scalar Network600.node480 	rate_of_requesters 	1
scalar Network600.node480 	number_of_resources 	33000
scalar Network600.node480 	time_period 	3
scalar Network600.node480 	number_of_messages 	169
scalar Network600.node480 	discovery_latency 	3480
scalar Network600.node480 	number_of_desired_resources 	20
scalar Network600.node480 	query_homogenity_rate 	33.333333333333
scalar Network600.node480 	qrecord_time 	12971.734430331
scalar Network600.node480 	discovery_resolution_rate 	50
scalar Network600.node260 	rate_of_requesters 	1
scalar Network600.node260 	number_of_resources 	33000
scalar Network600.node260 	time_period 	3
scalar Network600.node260 	number_of_messages 	32
scalar Network600.node260 	discovery_latency 	3492
scalar Network600.node260 	number_of_desired_resources 	20
scalar Network600.node260 	query_homogenity_rate 	33.333333333333
scalar Network600.node260 	qrecord_time 	13093.475390822
scalar Network600.node260 	discovery_resolution_rate 	33.333333333333
scalar Network600.node40 	rate_of_requesters 	1
scalar Network600.node40 	number_of_resources 	33000
scalar Network600.node40 	time_period 	3
scalar Network600.node40 	number_of_messages 	13
scalar Network600.node40 	discovery_latency 	3516
scalar Network600.node40 	number_of_desired_resources 	20
scalar Network600.node40 	query_homogenity_rate 	33.333333333333
scalar Network600.node40 	qrecord_time 	13118.143600422
scalar Network600.node40 	discovery_resolution_rate 	33.333333333333
scalar Network600.node530 	rate_of_requesters 	1
scalar Network600.node530 	number_of_resources 	33000
scalar Network600.node530 	time_period 	3
scalar Network600.node530 	number_of_messages 	207
scalar Network600.node530 	discovery_latency 	3792
scalar Network600.node530 	number_of_desired_resources 	20
scalar Network600.node530 	query_homogenity_rate 	33.333333333333
scalar Network600.node530 	qrecord_time 	13190.672346911
scalar Network600.node530 	discovery_resolution_rate 	50
scalar Network600.node390 	rate_of_requesters 	1
scalar Network600.node390 	number_of_resources 	33000
scalar Network600.node390 	time_period 	4
scalar Network600.node390 	number_of_messages 	20
scalar Network600.node390 	discovery_latency 	3396
scalar Network600.node390 	number_of_desired_resources 	20
scalar Network600.node390 	query_homogenity_rate 	33.333333333333
scalar Network600.node390 	qrecord_time 	13421.839015734
scalar Network600.node390 	discovery_resolution_rate 	66.666666666667
scalar Network600.node220 	rate_of_requesters 	1
scalar Network600.node220 	number_of_resources 	33000
scalar Network600.node220 	time_period 	4
scalar Network600.node220 	number_of_messages 	9
scalar Network600.node220 	discovery_latency 	3504
scalar Network600.node220 	number_of_desired_resources 	20
scalar Network600.node220 	query_homogenity_rate 	33.333333333333
scalar Network600.node220 	qrecord_time 	13693.271308692
scalar Network600.node220 	discovery_resolution_rate 	33.333333333333
scalar Network600.node90 	rate_of_requesters 	1
scalar Network600.node90 	number_of_resources 	33000
scalar Network600.node90 	time_period 	2
scalar Network600.node90 	number_of_messages 	196
scalar Network600.node90 	discovery_latency 	3732
scalar Network600.node90 	number_of_desired_resources 	20
scalar Network600.node90 	query_homogenity_rate 	33.333333333333
scalar Network600.node90 	qrecord_time 	13806.123621081
scalar Network600.node90 	discovery_resolution_rate 	50
scalar Network600.node0 	rate_of_requesters 	1
scalar Network600.node0 	number_of_resources 	33000
scalar Network600.node0 	time_period 	2
scalar Network600.node0 	number_of_messages 	191
scalar Network600.node0 	discovery_latency 	3720
scalar Network600.node0 	number_of_desired_resources 	20
scalar Network600.node0 	query_homogenity_rate 	33.333333333333
scalar Network600.node0 	qrecord_time 	13883.21551466
scalar Network600.node0 	discovery_resolution_rate 	50
scalar Network600.node100 	rate_of_requesters 	1
scalar Network600.node100 	number_of_resources 	33000
scalar Network600.node100 	time_period 	3
scalar Network600.node100 	number_of_messages 	2
scalar Network600.node100 	discovery_latency 	3768
scalar Network600.node100 	number_of_desired_resources 	20
scalar Network600.node100 	query_homogenity_rate 	33.333333333333
scalar Network600.node100 	qrecord_time 	13928.267262795
scalar Network600.node100 	discovery_resolution_rate 	0
scalar Network600.node410 	rate_of_requesters 	1
scalar Network600.node410 	number_of_resources 	33000
scalar Network600.node410 	time_period 	2
scalar Network600.node410 	number_of_messages 	24
scalar Network600.node410 	discovery_latency 	180
scalar Network600.node410 	number_of_desired_resources 	20
scalar Network600.node410 	query_homogenity_rate 	33.333333333333
scalar Network600.node410 	qrecord_time 	14032.275885496
scalar Network600.node410 	discovery_resolution_rate 	100
scalar Network600.node550 	rate_of_requesters 	1
scalar Network600.node550 	number_of_resources 	33000
scalar Network600.node550 	time_period 	4
scalar Network600.node550 	number_of_messages 	42
scalar Network600.node550 	discovery_latency 	3396
scalar Network600.node550 	number_of_desired_resources 	20
scalar Network600.node550 	query_homogenity_rate 	33.333333333333
scalar Network600.node550 	qrecord_time 	14125.758489036
scalar Network600.node550 	discovery_resolution_rate 	66.666666666667
scalar Network600.node170 	rate_of_requesters 	1
scalar Network600.node170 	number_of_resources 	33000
scalar Network600.node170 	time_period 	3
scalar Network600.node170 	number_of_messages 	7
scalar Network600.node170 	discovery_latency 	3528
scalar Network600.node170 	number_of_desired_resources 	20
scalar Network600.node170 	query_homogenity_rate 	33.333333333333
scalar Network600.node170 	qrecord_time 	14182.421888832
scalar Network600.node170 	discovery_resolution_rate 	33.333333333333
scalar Network600.node340 	rate_of_requesters 	1
scalar Network600.node340 	number_of_resources 	33000
scalar Network600.node340 	time_period 	4
scalar Network600.node340 	number_of_messages 	37
scalar Network600.node340 	discovery_latency 	3372
scalar Network600.node340 	number_of_desired_resources 	20
scalar Network600.node340 	query_homogenity_rate 	33.333333333333
scalar Network600.node340 	qrecord_time 	14190.030677401
scalar Network600.node340 	discovery_resolution_rate 	33.333333333333
scalar Network600.node130 	rate_of_requesters 	1
scalar Network600.node130 	number_of_resources 	33000
scalar Network600.node130 	time_period 	4
scalar Network600.node130 	number_of_messages 	8
scalar Network600.node130 	discovery_latency 	3492
scalar Network600.node130 	number_of_desired_resources 	20
scalar Network600.node130 	query_homogenity_rate 	33.333333333333
scalar Network600.node130 	qrecord_time 	14200.929867456
scalar Network600.node130 	discovery_resolution_rate 	33.333333333333
scalar Network600.node160 	rate_of_requesters 	1
scalar Network600.node160 	number_of_resources 	33000
scalar Network600.node160 	time_period 	4
scalar Network600.node160 	number_of_messages 	7
scalar Network600.node160 	discovery_latency 	3492
scalar Network600.node160 	number_of_desired_resources 	20
scalar Network600.node160 	query_homogenity_rate 	33.333333333333
scalar Network600.node160 	qrecord_time 	14271.348343063
scalar Network600.node160 	discovery_resolution_rate 	33.333333333333
scalar Network600.node110 	rate_of_requesters 	1
scalar Network600.node110 	number_of_resources 	33000
scalar Network600.node110 	time_period 	3
scalar Network600.node110 	number_of_messages 	44
scalar Network600.node110 	discovery_latency 	3252
scalar Network600.node110 	number_of_desired_resources 	20
scalar Network600.node110 	query_homogenity_rate 	33.333333333333
scalar Network600.node110 	qrecord_time 	14453.104252716
scalar Network600.node110 	discovery_resolution_rate 	66.666666666667
scalar Network600.node320 	rate_of_requesters 	1
scalar Network600.node320 	number_of_resources 	33000
scalar Network600.node320 	time_period 	2
scalar Network600.node320 	number_of_messages 	15
scalar Network600.node320 	discovery_latency 	3804
scalar Network600.node320 	number_of_desired_resources 	20
scalar Network600.node320 	query_homogenity_rate 	33.333333333333
scalar Network600.node320 	qrecord_time 	14476.011995554
scalar Network600.node320 	discovery_resolution_rate 	33.333333333333
scalar Network600.node420 	rate_of_requesters 	1
scalar Network600.node420 	number_of_resources 	33000
scalar Network600.node420 	time_period 	2
scalar Network600.node420 	number_of_messages 	13
scalar Network600.node420 	discovery_latency 	3552
scalar Network600.node420 	number_of_desired_resources 	20
scalar Network600.node420 	query_homogenity_rate 	33.333333333333
scalar Network600.node420 	qrecord_time 	14507.151871305
scalar Network600.node420 	discovery_resolution_rate 	33.333333333333
scalar Network600.node370 	rate_of_requesters 	1
scalar Network600.node370 	number_of_resources 	33000
scalar Network600.node370 	time_period 	2
scalar Network600.node370 	number_of_messages 	22
scalar Network600.node370 	discovery_latency 	3744
scalar Network600.node370 	number_of_desired_resources 	20
scalar Network600.node370 	query_homogenity_rate 	33.333333333333
scalar Network600.node370 	qrecord_time 	14542.537693617
scalar Network600.node370 	discovery_resolution_rate 	33.333333333333
scalar Network600.node70 	rate_of_requesters 	1
scalar Network600.node70 	number_of_resources 	33000
scalar Network600.node70 	time_period 	5
scalar Network600.node70 	number_of_messages 	203
scalar Network600.node70 	discovery_latency 	3960
scalar Network600.node70 	number_of_desired_resources 	20
scalar Network600.node70 	query_homogenity_rate 	33.333333333333
scalar Network600.node70 	qrecord_time 	14603.97580835
scalar Network600.node70 	discovery_resolution_rate 	83.333333333333
scalar Network600.node520 	rate_of_requesters 	1
scalar Network600.node520 	number_of_resources 	33000
scalar Network600.node520 	time_period 	4
scalar Network600.node520 	number_of_messages 	2
scalar Network600.node520 	discovery_latency 	3816
scalar Network600.node520 	number_of_desired_resources 	20
scalar Network600.node520 	query_homogenity_rate 	33.333333333333
scalar Network600.node520 	qrecord_time 	14619.765548565
scalar Network600.node520 	discovery_resolution_rate 	0
scalar Network600.node540 	rate_of_requesters 	1
scalar Network600.node540 	number_of_resources 	33000
scalar Network600.node540 	time_period 	2
scalar Network600.node540 	number_of_messages 	189
scalar Network600.node540 	discovery_latency 	3792
scalar Network600.node540 	number_of_desired_resources 	20
scalar Network600.node540 	query_homogenity_rate 	33.333333333333
scalar Network600.node540 	qrecord_time 	14625.183129513
scalar Network600.node540 	discovery_resolution_rate 	16.666666666667
scalar Network600.node570 	rate_of_requesters 	1
scalar Network600.node570 	number_of_resources 	33000
scalar Network600.node570 	time_period 	2
scalar Network600.node570 	number_of_messages 	9
scalar Network600.node570 	discovery_latency 	3888
scalar Network600.node570 	number_of_desired_resources 	20
scalar Network600.node570 	query_homogenity_rate 	33.333333333333
scalar Network600.node570 	qrecord_time 	14683.245436189
scalar Network600.node570 	discovery_resolution_rate 	33.333333333333
scalar Network600.node370 	rate_of_requesters 	1
scalar Network600.node370 	number_of_resources 	33000
scalar Network600.node370 	time_period 	3
scalar Network600.node370 	number_of_messages 	23
scalar Network600.node370 	discovery_latency 	3432
scalar Network600.node370 	number_of_desired_resources 	20
scalar Network600.node370 	query_homogenity_rate 	33.333333333333
scalar Network600.node370 	qrecord_time 	15015.084594535
scalar Network600.node370 	discovery_resolution_rate 	66.666666666667
scalar Network600.node490 	rate_of_requesters 	1
scalar Network600.node490 	number_of_resources 	33000
scalar Network600.node490 	time_period 	3
scalar Network600.node490 	number_of_messages 	52
scalar Network600.node490 	discovery_latency 	3492
scalar Network600.node490 	number_of_desired_resources 	20
scalar Network600.node490 	query_homogenity_rate 	33.333333333333
scalar Network600.node490 	qrecord_time 	15152.249396457
scalar Network600.node490 	discovery_resolution_rate 	66.666666666667
scalar Network600.node240 	rate_of_requesters 	1
scalar Network600.node240 	number_of_resources 	33000
scalar Network600.node240 	time_period 	2
scalar Network600.node240 	number_of_messages 	22
scalar Network600.node240 	discovery_latency 	3468
scalar Network600.node240 	number_of_desired_resources 	20
scalar Network600.node240 	query_homogenity_rate 	33.333333333333
scalar Network600.node240 	qrecord_time 	15184.363762664
scalar Network600.node240 	discovery_resolution_rate 	33.333333333333
scalar Network600.node0 	rate_of_requesters 	1
scalar Network600.node0 	number_of_resources 	33000
scalar Network600.node0 	time_period 	3
scalar Network600.node0 	number_of_messages 	27
scalar Network600.node0 	discovery_latency 	3576
scalar Network600.node0 	number_of_desired_resources 	20
scalar Network600.node0 	query_homogenity_rate 	33.333333333333
scalar Network600.node0 	qrecord_time 	15637.949057429
scalar Network600.node0 	discovery_resolution_rate 	33.333333333333
scalar Network600.node400 	rate_of_requesters 	1
scalar Network600.node400 	number_of_resources 	33000
scalar Network600.node400 	time_period 	3
scalar Network600.node400 	number_of_messages 	189
scalar Network600.node400 	discovery_latency 	3744
scalar Network600.node400 	number_of_desired_resources 	20
scalar Network600.node400 	query_homogenity_rate 	33.333333333333
scalar Network600.node400 	qrecord_time 	15721.56972751
scalar Network600.node400 	discovery_resolution_rate 	16.666666666667
scalar Network600.node200 	rate_of_requesters 	1
scalar Network600.node200 	number_of_resources 	33000
scalar Network600.node200 	time_period 	3
scalar Network600.node200 	number_of_messages 	2
scalar Network600.node200 	discovery_latency 	3876
scalar Network600.node200 	number_of_desired_resources 	20
scalar Network600.node200 	query_homogenity_rate 	33.333333333333
scalar Network600.node200 	qrecord_time 	15733.92365281
scalar Network600.node200 	discovery_resolution_rate 	0
scalar Network600.node500 	rate_of_requesters 	1
scalar Network600.node500 	number_of_resources 	33000
scalar Network600.node500 	time_period 	5
scalar Network600.node500 	number_of_messages 	2
scalar Network600.node500 	discovery_latency 	3888
scalar Network600.node500 	number_of_desired_resources 	20
scalar Network600.node500 	query_homogenity_rate 	33.333333333333
scalar Network600.node500 	qrecord_time 	15777.859378865
scalar Network600.node500 	discovery_resolution_rate 	0
scalar Network600.node370 	rate_of_requesters 	1
scalar Network600.node370 	number_of_resources 	33000
scalar Network600.node370 	time_period 	4
scalar Network600.node370 	number_of_messages 	2
scalar Network600.node370 	discovery_latency 	3840
scalar Network600.node370 	number_of_desired_resources 	20
scalar Network600.node370 	query_homogenity_rate 	33.333333333333
scalar Network600.node370 	qrecord_time 	15787.266976604
scalar Network600.node370 	discovery_resolution_rate 	0
scalar Network600.node440 	rate_of_requesters 	1
scalar Network600.node440 	number_of_resources 	33000
scalar Network600.node440 	time_period 	2
scalar Network600.node440 	number_of_messages 	11
scalar Network600.node440 	discovery_latency 	3900
scalar Network600.node440 	number_of_desired_resources 	20
scalar Network600.node440 	query_homogenity_rate 	33.333333333333
scalar Network600.node440 	qrecord_time 	15858.845951263
scalar Network600.node440 	discovery_resolution_rate 	33.333333333333
scalar Network600.node520 	rate_of_requesters 	1
scalar Network600.node520 	number_of_resources 	33000
scalar Network600.node520 	time_period 	5
scalar Network600.node520 	number_of_messages 	15
scalar Network600.node520 	discovery_latency 	3504
scalar Network600.node520 	number_of_desired_resources 	20
scalar Network600.node520 	query_homogenity_rate 	33.333333333333
scalar Network600.node520 	qrecord_time 	15904.810903874
scalar Network600.node520 	discovery_resolution_rate 	33.333333333333
scalar Network600.node400 	rate_of_requesters 	1
scalar Network600.node400 	number_of_resources 	33000
scalar Network600.node400 	time_period 	4
scalar Network600.node400 	number_of_messages 	21
scalar Network600.node400 	discovery_latency 	3744
scalar Network600.node400 	number_of_desired_resources 	20
scalar Network600.node400 	query_homogenity_rate 	33.333333333333
scalar Network600.node400 	qrecord_time 	15914.268614723
scalar Network600.node400 	discovery_resolution_rate 	33.333333333333
scalar Network600.node140 	rate_of_requesters 	1
scalar Network600.node140 	number_of_resources 	33000
scalar Network600.node140 	time_period 	2
scalar Network600.node140 	number_of_messages 	19
scalar Network600.node140 	discovery_latency 	3864
scalar Network600.node140 	number_of_desired_resources 	20
scalar Network600.node140 	query_homogenity_rate 	33.333333333333
scalar Network600.node140 	qrecord_time 	15996.319010982
scalar Network600.node140 	discovery_resolution_rate 	33.333333333333
scalar Network600.node210 	rate_of_requesters 	1
scalar Network600.node210 	number_of_resources 	33000
scalar Network600.node210 	time_period 	3
scalar Network600.node210 	number_of_messages 	25
scalar Network600.node210 	discovery_latency 	3864
scalar Network600.node210 	number_of_desired_resources 	20
scalar Network600.node210 	query_homogenity_rate 	33.333333333333
scalar Network600.node210 	qrecord_time 	16008.890569372
scalar Network600.node210 	discovery_resolution_rate 	33.333333333333
scalar Network600.node70 	rate_of_requesters 	1
scalar Network600.node70 	number_of_resources 	33000
scalar Network600.node70 	time_period 	6
scalar Network600.node70 	number_of_messages 	67
scalar Network600.node70 	discovery_latency 	3600
scalar Network600.node70 	number_of_desired_resources 	20
scalar Network600.node70 	query_homogenity_rate 	33.333333333333
scalar Network600.node70 	qrecord_time 	16084.403382372
scalar Network600.node70 	discovery_resolution_rate 	66.666666666667
scalar Network600.node470 	rate_of_requesters 	1
scalar Network600.node470 	number_of_resources 	33000
scalar Network600.node470 	time_period 	5
scalar Network600.node470 	number_of_messages 	166
scalar Network600.node470 	discovery_latency 	3456
scalar Network600.node470 	number_of_desired_resources 	20
scalar Network600.node470 	query_homogenity_rate 	33.333333333333
scalar Network600.node470 	qrecord_time 	16094.392817845
scalar Network600.node470 	discovery_resolution_rate 	50
scalar Network600.node0 	rate_of_requesters 	1
scalar Network600.node0 	number_of_resources 	33000
scalar Network600.node0 	time_period 	4
scalar Network600.node0 	number_of_messages 	171
scalar Network600.node0 	discovery_latency 	3600
scalar Network600.node0 	number_of_desired_resources 	20
scalar Network600.node0 	query_homogenity_rate 	33.333333333333
scalar Network600.node0 	qrecord_time 	16095.200547723
scalar Network600.node0 	discovery_resolution_rate 	50
scalar Network600.node550 	rate_of_requesters 	1
scalar Network600.node550 	number_of_resources 	33000
scalar Network600.node550 	time_period 	5
scalar Network600.node550 	number_of_messages 	2
scalar Network600.node550 	discovery_latency 	3900
scalar Network600.node550 	number_of_desired_resources 	20
scalar Network600.node550 	query_homogenity_rate 	33.333333333333
scalar Network600.node550 	qrecord_time 	16113.902523016
scalar Network600.node550 	discovery_resolution_rate 	0
scalar Network600.node180 	rate_of_requesters 	1
scalar Network600.node180 	number_of_resources 	33000
scalar Network600.node180 	time_period 	4
scalar Network600.node180 	number_of_messages 	2
scalar Network600.node180 	discovery_latency 	3792
scalar Network600.node180 	number_of_desired_resources 	20
scalar Network600.node180 	query_homogenity_rate 	33.333333333333
scalar Network600.node180 	qrecord_time 	16514.625382684
scalar Network600.node180 	discovery_resolution_rate 	0
scalar Network600.node60 	rate_of_requesters 	1
scalar Network600.node60 	number_of_resources 	33000
scalar Network600.node60 	time_period 	2
scalar Network600.node60 	number_of_messages 	24
scalar Network600.node60 	discovery_latency 	3588
scalar Network600.node60 	number_of_desired_resources 	20
scalar Network600.node60 	query_homogenity_rate 	33.333333333333
scalar Network600.node60 	qrecord_time 	16528.647834928
scalar Network600.node60 	discovery_resolution_rate 	33.333333333333
scalar Network600.node90 	rate_of_requesters 	1
scalar Network600.node90 	number_of_resources 	33000
scalar Network600.node90 	time_period 	3
scalar Network600.node90 	number_of_messages 	10
scalar Network600.node90 	discovery_latency 	3564
scalar Network600.node90 	number_of_desired_resources 	20
scalar Network600.node90 	query_homogenity_rate 	33.333333333333
scalar Network600.node90 	qrecord_time 	16565.980079864
scalar Network600.node90 	discovery_resolution_rate 	33.333333333333
scalar Network600.node50 	rate_of_requesters 	1
scalar Network600.node50 	number_of_resources 	33000
scalar Network600.node50 	time_period 	6
scalar Network600.node50 	number_of_messages 	17
scalar Network600.node50 	discovery_latency 	3816
scalar Network600.node50 	number_of_desired_resources 	20
scalar Network600.node50 	query_homogenity_rate 	33.333333333333
scalar Network600.node50 	qrecord_time 	16588.88036035
scalar Network600.node50 	discovery_resolution_rate 	33.333333333333
scalar Network600.node400 	rate_of_requesters 	1
scalar Network600.node400 	number_of_resources 	33000
scalar Network600.node400 	time_period 	5
scalar Network600.node400 	number_of_messages 	178
scalar Network600.node400 	discovery_latency 	3648
scalar Network600.node400 	number_of_desired_resources 	20
scalar Network600.node400 	query_homogenity_rate 	33.333333333333
scalar Network600.node400 	qrecord_time 	16633.741239741
scalar Network600.node400 	discovery_resolution_rate 	50
scalar Network600.node520 	rate_of_requesters 	1
scalar Network600.node520 	number_of_resources 	33000
scalar Network600.node520 	time_period 	6
scalar Network600.node520 	number_of_messages 	189
scalar Network600.node520 	discovery_latency 	3888
scalar Network600.node520 	number_of_desired_resources 	20
scalar Network600.node520 	query_homogenity_rate 	33.333333333333
scalar Network600.node520 	qrecord_time 	16927.813764961
scalar Network600.node520 	discovery_resolution_rate 	16.666666666667
scalar Network600.node510 	rate_of_requesters 	1
scalar Network600.node510 	number_of_resources 	33000
scalar Network600.node510 	time_period 	3
scalar Network600.node510 	number_of_messages 	50
scalar Network600.node510 	discovery_latency 	3576
scalar Network600.node510 	number_of_desired_resources 	20
scalar Network600.node510 	query_homogenity_rate 	33.333333333333
scalar Network600.node510 	qrecord_time 	17018.024546801
scalar Network600.node510 	discovery_resolution_rate 	33.333333333333
scalar Network600.node150 	rate_of_requesters 	1
scalar Network600.node150 	number_of_resources 	33000
scalar Network600.node150 	time_period 	3
scalar Network600.node150 	number_of_messages 	2
scalar Network600.node150 	discovery_latency 	3948
scalar Network600.node150 	number_of_desired_resources 	20
scalar Network600.node150 	query_homogenity_rate 	33.333333333333
scalar Network600.node150 	qrecord_time 	17019.723550846
[...]
scalar Network600.node120 	time_period 	10
scalar Network600.node120 	number_of_messages 	119
scalar Network600.node120 	discovery_latency 	3576
scalar Network600.node120 	number_of_desired_resources 	20
scalar Network600.node120 	query_homogenity_rate 	33.333333333333
scalar Network600.node120 	qrecord_time 	52442.609613899
scalar Network600.node120 	discovery_resolution_rate 	33.333333333333
scalar Network600.node60 	rate_of_requesters 	1
scalar Network600.node60 	number_of_resources 	33000
scalar Network600.node60 	time_period 	8
scalar Network600.node60 	number_of_messages 	9
scalar Network600.node60 	discovery_latency 	3528
scalar Network600.node60 	number_of_desired_resources 	20
scalar Network600.node60 	query_homogenity_rate 	33.333333333333
scalar Network600.node60 	qrecord_time 	52461.126444991
scalar Network600.node60 	discovery_resolution_rate 	33.333333333333
scalar Network600.node420 	rate_of_requesters 	1
scalar Network600.node420 	number_of_resources 	33000
scalar Network600.node420 	time_period 	8
scalar Network600.node420 	number_of_messages 	22
scalar Network600.node420 	discovery_latency 	186
scalar Network600.node420 	number_of_desired_resources 	20
scalar Network600.node420 	query_homogenity_rate 	33.333333333333
scalar Network600.node420 	qrecord_time 	52557.179636354
scalar Network600.node420 	discovery_resolution_rate 	100
scalar Network600.node160 	rate_of_requesters 	1
scalar Network600.node160 	number_of_resources 	33000
scalar Network600.node160 	time_period 	10
scalar Network600.node160 	number_of_messages 	7
scalar Network600.node160 	discovery_latency 	3444
scalar Network600.node160 	number_of_desired_resources 	20
scalar Network600.node160 	query_homogenity_rate 	33.333333333333
scalar Network600.node160 	qrecord_time 	52772.522406605
scalar Network600.node160 	discovery_resolution_rate 	33.333333333333
scalar Network600.node170 	rate_of_requesters 	1
scalar Network600.node170 	number_of_resources 	33000
scalar Network600.node170 	time_period 	9
scalar Network600.node170 	number_of_messages 	26
scalar Network600.node170 	discovery_latency 	222
scalar Network600.node170 	number_of_desired_resources 	20
scalar Network600.node170 	query_homogenity_rate 	33.333333333333
scalar Network600.node170 	qrecord_time 	52819.421808715
scalar Network600.node170 	discovery_resolution_rate 	100
scalar Network600.node190 	rate_of_requesters 	1
scalar Network600.node190 	number_of_resources 	33000
scalar Network600.node190 	time_period 	6
scalar Network600.node190 	number_of_messages 	58
scalar Network600.node190 	discovery_latency 	3480
scalar Network600.node190 	number_of_desired_resources 	20
scalar Network600.node190 	query_homogenity_rate 	33.333333333333
scalar Network600.node190 	qrecord_time 	52873.769807188
scalar Network600.node190 	discovery_resolution_rate 	33.333333333333
scalar Network600.node60 	rate_of_requesters 	1
scalar Network600.node60 	number_of_resources 	33000
scalar Network600.node60 	time_period 	9
scalar Network600.node60 	number_of_messages 	189
scalar Network600.node60 	discovery_latency 	3888
scalar Network600.node60 	number_of_desired_resources 	20
scalar Network600.node60 	query_homogenity_rate 	33.333333333333
scalar Network600.node60 	qrecord_time 	53115.581615402
scalar Network600.node60 	discovery_resolution_rate 	16.666666666667
scalar Network600.node290 	rate_of_requesters 	1
scalar Network600.node290 	number_of_resources 	33000
scalar Network600.node290 	time_period 	8
scalar Network600.node290 	number_of_messages 	29
scalar Network600.node290 	discovery_latency 	3420
scalar Network600.node290 	number_of_desired_resources 	20
scalar Network600.node290 	query_homogenity_rate 	33.333333333333
scalar Network600.node290 	qrecord_time 	53166.728239963
scalar Network600.node290 	discovery_resolution_rate 	66.666666666667
scalar Network600.node30 	rate_of_requesters 	1
scalar Network600.node30 	number_of_resources 	33000
scalar Network600.node30 	time_period 	9
scalar Network600.node30 	number_of_messages 	35
scalar Network600.node30 	discovery_latency 	239.99999999999
scalar Network600.node30 	number_of_desired_resources 	20
scalar Network600.node30 	query_homogenity_rate 	33.333333333333
scalar Network600.node30 	qrecord_time 	53857.166928578
scalar Network600.node30 	discovery_resolution_rate 	100
scalar Network600.node30 	rate_of_requesters 	1
scalar Network600.node30 	number_of_resources 	33000
scalar Network600.node30 	time_period 	10
scalar Network600.node30 	number_of_messages 	34
scalar Network600.node30 	discovery_latency 	240
scalar Network600.node30 	number_of_desired_resources 	20
scalar Network600.node30 	query_homogenity_rate 	33.333333333333
scalar Network600.node30 	qrecord_time 	54002.397374875
scalar Network600.node30 	discovery_resolution_rate 	100
scalar Network600.node190 	rate_of_requesters 	1
scalar Network600.node190 	number_of_resources 	33000
scalar Network600.node190 	time_period 	9
scalar Network600.node190 	number_of_messages 	55
scalar Network600.node190 	discovery_latency 	480
scalar Network600.node190 	number_of_desired_resources 	20
scalar Network600.node190 	query_homogenity_rate 	33.333333333333
scalar Network600.node190 	qrecord_time 	54030.08839316
scalar Network600.node190 	discovery_resolution_rate 	100
scalar Network600.node190 	rate_of_requesters 	1
scalar Network600.node190 	number_of_resources 	33000
scalar Network600.node190 	time_period 	8
scalar Network600.node190 	number_of_messages 	118
scalar Network600.node190 	discovery_latency 	2184
scalar Network600.node190 	number_of_desired_resources 	20
scalar Network600.node190 	query_homogenity_rate 	33.333333333333
scalar Network600.node190 	qrecord_time 	54606.770306863
scalar Network600.node190 	discovery_resolution_rate 	100
scalar Network600.node460 	rate_of_requesters 	1
scalar Network600.node460 	number_of_resources 	33000
scalar Network600.node460 	time_period 	10
scalar Network600.node460 	number_of_messages 	51
scalar Network600.node460 	discovery_latency 	396
scalar Network600.node460 	number_of_desired_resources 	20
scalar Network600.node460 	query_homogenity_rate 	33.333333333333
scalar Network600.node460 	qrecord_time 	54607.360611889
scalar Network600.node460 	discovery_resolution_rate 	100
scalar Network600.node580 	rate_of_requesters 	1
scalar Network600.node580 	number_of_resources 	33000
scalar Network600.node580 	time_period 	7
scalar Network600.node580 	number_of_messages 	21
scalar Network600.node580 	discovery_latency 	239.99999999999
scalar Network600.node580 	number_of_desired_resources 	20
scalar Network600.node580 	query_homogenity_rate 	33.333333333333
scalar Network600.node580 	qrecord_time 	55576.568408935
scalar Network600.node580 	discovery_resolution_rate 	100
scalar Network600.node480 	rate_of_requesters 	1
scalar Network600.node480 	number_of_resources 	33000
scalar Network600.node480 	time_period 	10
scalar Network600.node480 	number_of_messages 	24
scalar Network600.node480 	discovery_latency 	3432
scalar Network600.node480 	number_of_desired_resources 	20
scalar Network600.node480 	query_homogenity_rate 	33.333333333333
scalar Network600.node480 	qrecord_time 	55916.180797376
scalar Network600.node480 	discovery_resolution_rate 	66.666666666667
scalar Network600.node580 	rate_of_requesters 	1
scalar Network600.node580 	number_of_resources 	33000
scalar Network600.node580 	time_period 	8
scalar Network600.node580 	number_of_messages 	25
scalar Network600.node580 	discovery_latency 	252
scalar Network600.node580 	number_of_desired_resources 	20
scalar Network600.node580 	query_homogenity_rate 	33.333333333333
scalar Network600.node580 	qrecord_time 	56080.379162955
scalar Network600.node580 	discovery_resolution_rate 	100
scalar Network600.node170 	rate_of_requesters 	1
scalar Network600.node170 	number_of_resources 	33000
scalar Network600.node170 	time_period 	10
scalar Network600.node170 	number_of_messages 	17
scalar Network600.node170 	discovery_latency 	144.00000000001
scalar Network600.node170 	number_of_desired_resources 	20
scalar Network600.node170 	query_homogenity_rate 	33.333333333333
scalar Network600.node170 	qrecord_time 	56948.026263266
scalar Network600.node170 	discovery_resolution_rate 	100
scalar Network600.node450 	rate_of_requesters 	1
scalar Network600.node450 	number_of_resources 	33000
scalar Network600.node450 	time_period 	9
scalar Network600.node450 	number_of_messages 	177
scalar Network600.node450 	discovery_latency 	3444
scalar Network600.node450 	number_of_desired_resources 	20
scalar Network600.node450 	query_homogenity_rate 	33.333333333333
scalar Network600.node450 	qrecord_time 	57399.272544061
scalar Network600.node450 	discovery_resolution_rate 	83.333333333333
scalar Network600.node380 	rate_of_requesters 	1
scalar Network600.node380 	number_of_resources 	33000
scalar Network600.node380 	time_period 	9
scalar Network600.node380 	number_of_messages 	23
scalar Network600.node380 	discovery_latency 	120
scalar Network600.node380 	number_of_desired_resources 	20
scalar Network600.node380 	query_homogenity_rate 	33.333333333333
scalar Network600.node380 	qrecord_time 	57677.238755268
scalar Network600.node380 	discovery_resolution_rate 	100
scalar Network600.node420 	rate_of_requesters 	1
scalar Network600.node420 	number_of_resources 	33000
scalar Network600.node420 	time_period 	9
scalar Network600.node420 	number_of_messages 	18
scalar Network600.node420 	discovery_latency 	3528
scalar Network600.node420 	number_of_desired_resources 	20
scalar Network600.node420 	query_homogenity_rate 	33.333333333333
scalar Network600.node420 	qrecord_time 	57738.51215181
scalar Network600.node420 	discovery_resolution_rate 	66.666666666667
scalar Network600.node240 	rate_of_requesters 	1
scalar Network600.node240 	number_of_resources 	33000
scalar Network600.node240 	time_period 	8
scalar Network600.node240 	number_of_messages 	29
scalar Network600.node240 	discovery_latency 	348
scalar Network600.node240 	number_of_desired_resources 	20
scalar Network600.node240 	query_homogenity_rate 	33.333333333333
scalar Network600.node240 	qrecord_time 	58128.249319395
scalar Network600.node240 	discovery_resolution_rate 	100
scalar Network600.node310 	rate_of_requesters 	1
scalar Network600.node310 	number_of_resources 	33000
scalar Network600.node310 	time_period 	7
scalar Network600.node310 	number_of_messages 	24
scalar Network600.node310 	discovery_latency 	192
scalar Network600.node310 	number_of_desired_resources 	20
scalar Network600.node310 	query_homogenity_rate 	33.333333333333
scalar Network600.node310 	qrecord_time 	58211.772780891
scalar Network600.node310 	discovery_resolution_rate 	100
scalar Network600.node140 	rate_of_requesters 	1
scalar Network600.node140 	number_of_resources 	33000
scalar Network600.node140 	time_period 	10
scalar Network600.node140 	number_of_messages 	17
scalar Network600.node140 	discovery_latency 	132
scalar Network600.node140 	number_of_desired_resources 	20
scalar Network600.node140 	query_homogenity_rate 	33.333333333333
scalar Network600.node140 	qrecord_time 	58303.447533701
scalar Network600.node140 	discovery_resolution_rate 	100
scalar Network600.node450 	rate_of_requesters 	1
scalar Network600.node450 	number_of_resources 	33000
scalar Network600.node450 	time_period 	10
scalar Network600.node450 	number_of_messages 	22
scalar Network600.node450 	discovery_latency 	198
scalar Network600.node450 	number_of_desired_resources 	20
scalar Network600.node450 	query_homogenity_rate 	33.333333333333
scalar Network600.node450 	qrecord_time 	58724.417946515
scalar Network600.node450 	discovery_resolution_rate 	100
scalar Network600.node20 	rate_of_requesters 	1
scalar Network600.node20 	number_of_resources 	33000
scalar Network600.node20 	time_period 	8
scalar Network600.node20 	number_of_messages 	27
scalar Network600.node20 	discovery_latency 	336
scalar Network600.node20 	number_of_desired_resources 	20
scalar Network600.node20 	query_homogenity_rate 	33.333333333333
scalar Network600.node20 	qrecord_time 	59405.636497481
scalar Network600.node20 	discovery_resolution_rate 	100
scalar Network600.node380 	rate_of_requesters 	1
scalar Network600.node380 	number_of_resources 	33000
scalar Network600.node380 	time_period 	10
scalar Network600.node380 	number_of_messages 	38
scalar Network600.node380 	discovery_latency 	336
scalar Network600.node380 	number_of_desired_resources 	20
scalar Network600.node380 	query_homogenity_rate 	33.333333333333
scalar Network600.node380 	qrecord_time 	59869.226077151
scalar Network600.node380 	discovery_resolution_rate 	100
scalar Network600.node60 	rate_of_requesters 	1
scalar Network600.node60 	number_of_resources 	33000
scalar Network600.node60 	time_period 	10
scalar Network600.node60 	number_of_messages 	25
scalar Network600.node60 	discovery_latency 	252
scalar Network600.node60 	number_of_desired_resources 	20
scalar Network600.node60 	query_homogenity_rate 	33.333333333333
scalar Network600.node60 	qrecord_time 	61121.617218867
scalar Network600.node60 	discovery_resolution_rate 	100
scalar Network600.node80 	rate_of_requesters 	1
scalar Network600.node80 	number_of_resources 	33000
scalar Network600.node80 	time_period 	10
scalar Network600.node80 	number_of_messages 	31
scalar Network600.node80 	discovery_latency 	324.00000000001
scalar Network600.node80 	number_of_desired_resources 	20
scalar Network600.node80 	query_homogenity_rate 	33.333333333333
scalar Network600.node80 	qrecord_time 	61235.237550416
scalar Network600.node80 	discovery_resolution_rate 	100
scalar Network600.node240 	rate_of_requesters 	1
scalar Network600.node240 	number_of_resources 	33000
scalar Network600.node240 	time_period 	9
scalar Network600.node240 	number_of_messages 	23
scalar Network600.node240 	discovery_latency 	192
scalar Network600.node240 	number_of_desired_resources 	20
scalar Network600.node240 	query_homogenity_rate 	33.333333333333
scalar Network600.node240 	qrecord_time 	61473.35185602
scalar Network600.node240 	discovery_resolution_rate 	100
scalar Network600.node20 	rate_of_requesters 	1
scalar Network600.node20 	number_of_resources 	33000
scalar Network600.node20 	time_period 	9
scalar Network600.node20 	number_of_messages 	30
scalar Network600.node20 	discovery_latency 	324
scalar Network600.node20 	number_of_desired_resources 	20
scalar Network600.node20 	query_homogenity_rate 	33.333333333333
scalar Network600.node20 	qrecord_time 	61918.729568744
scalar Network600.node20 	discovery_resolution_rate 	100
scalar Network600.node580 	rate_of_requesters 	1
scalar Network600.node580 	number_of_resources 	33000
scalar Network600.node580 	time_period 	9
scalar Network600.node580 	number_of_messages 	17
scalar Network600.node580 	discovery_latency 	156
scalar Network600.node580 	number_of_desired_resources 	20
scalar Network600.node580 	query_homogenity_rate 	33.333333333333
scalar Network600.node580 	qrecord_time 	61953.184160941
scalar Network600.node580 	discovery_resolution_rate 	100
scalar Network600.node420 	rate_of_requesters 	1
scalar Network600.node420 	number_of_resources 	33000
scalar Network600.node420 	time_period 	10
scalar Network600.node420 	number_of_messages 	26
scalar Network600.node420 	discovery_latency 	186
scalar Network600.node420 	number_of_desired_resources 	20
scalar Network600.node420 	query_homogenity_rate 	33.333333333333
scalar Network600.node420 	qrecord_time 	62660.810175586
scalar Network600.node420 	discovery_resolution_rate 	100
scalar Network600.node20 	rate_of_requesters 	1
scalar Network600.node20 	number_of_resources 	33000
scalar Network600.node20 	time_period 	10
scalar Network600.node20 	number_of_messages 	17
scalar Network600.node20 	discovery_latency 	83.999999999996
scalar Network600.node20 	number_of_desired_resources 	20
scalar Network600.node20 	query_homogenity_rate 	33.333333333333
scalar Network600.node20 	qrecord_time 	62967.855374778
scalar Network600.node20 	discovery_resolution_rate 	100
scalar Network600.node310 	rate_of_requesters 	1
scalar Network600.node310 	number_of_resources 	33000
scalar Network600.node310 	time_period 	8
scalar Network600.node310 	number_of_messages 	24
scalar Network600.node310 	discovery_latency 	192
scalar Network600.node310 	number_of_desired_resources 	20
scalar Network600.node310 	query_homogenity_rate 	33.333333333333
scalar Network600.node310 	qrecord_time 	63643.589600653
scalar Network600.node310 	discovery_resolution_rate 	100
scalar Network600.node580 	rate_of_requesters 	1
scalar Network600.node580 	number_of_resources 	33000
scalar Network600.node580 	time_period 	10
scalar Network600.node580 	number_of_messages 	17
scalar Network600.node580 	discovery_latency 	156
scalar Network600.node580 	number_of_desired_resources 	20
scalar Network600.node580 	query_homogenity_rate 	33.333333333333
scalar Network600.node580 	qrecord_time 	64167.549522608
scalar Network600.node580 	discovery_resolution_rate 	100
scalar Network600.node190 	rate_of_requesters 	1
scalar Network600.node190 	number_of_resources 	33000
scalar Network600.node190 	time_period 	10
scalar Network600.node190 	number_of_messages 	23
scalar Network600.node190 	discovery_latency 	197.99999999999
scalar Network600.node190 	number_of_desired_resources 	20
scalar Network600.node190 	query_homogenity_rate 	33.333333333333
scalar Network600.node190 	qrecord_time 	65762.99697162
scalar Network600.node190 	discovery_resolution_rate 	100
scalar Network600.node240 	rate_of_requesters 	1
scalar Network600.node240 	number_of_resources 	33000
scalar Network600.node240 	time_period 	10
scalar Network600.node240 	number_of_messages 	21
scalar Network600.node240 	discovery_latency 	192.00000000001
scalar Network600.node240 	number_of_desired_resources 	20
scalar Network600.node240 	query_homogenity_rate 	33.333333333333
scalar Network600.node240 	qrecord_time 	66075.160767889
scalar Network600.node240 	discovery_resolution_rate 	100
scalar Network600.node290 	rate_of_requesters 	1
scalar Network600.node290 	number_of_resources 	33000
scalar Network600.node290 	time_period 	9
scalar Network600.node290 	number_of_messages 	17
scalar Network600.node290 	discovery_latency 	131.99999999999
scalar Network600.node290 	number_of_desired_resources 	20
scalar Network600.node290 	query_homogenity_rate 	33.333333333333
scalar Network600.node290 	qrecord_time 	69020.334802724
scalar Network600.node290 	discovery_resolution_rate 	100
scalar Network600.node290 	rate_of_requesters 	1
scalar Network600.node290 	number_of_resources 	33000
scalar Network600.node290 	time_period 	10
scalar Network600.node290 	number_of_messages 	17
scalar Network600.node290 	discovery_latency 	132.00000000001
scalar Network600.node290 	number_of_desired_resources 	20
scalar Network600.node290 	query_homogenity_rate 	33.333333333333
scalar Network600.node290 	qrecord_time 	70045.234799998
scalar Network600.node290 	discovery_resolution_rate 	100
scalar Network600.node310 	rate_of_requesters 	1
scalar Network600.node310 	number_of_resources 	33000
scalar Network600.node310 	time_period 	9
scalar Network600.node310 	number_of_messages 	22
scalar Network600.node310 	discovery_latency 	179.99999999999
scalar Network600.node310 	number_of_desired_resources 	20
scalar Network600.node310 	query_homogenity_rate 	33.333333333333
scalar Network600.node310 	qrecord_time 	71176.98646835
scalar Network600.node310 	discovery_resolution_rate 	100
scalar Network600.node310 	rate_of_requesters 	1
scalar Network600.node310 	number_of_resources 	33000
scalar Network600.node310 	time_period 	10
scalar Network600.node310 	number_of_messages 	22
scalar Network600.node310 	discovery_latency 	179.99999999999
scalar Network600.node310 	number_of_desired_resources 	20
scalar Network600.node310 	query_homogenity_rate 	33.333333333333
scalar Network600.node310 	qrecord_time 	74884.510028059
scalar Network600.node310 	discovery_resolution_rate 	100
