version 2
run net700-2-20150623-22:42:44-5436
attr as 1
attr configname net700
attr datetime 20150623-22:42:44
attr dnor 20
attr experiment net700
attr inifile omnetpp.ini
attr iterationvars "$rhdrq=3, $dnor=20, $as=1"
attr iterationvars2 "$rhdrq=3, $dnor=20, $as=1, $repetition=2"
attr measurement "$rhdrq=3, $dnor=20, $as=1"
attr network Network700
attr processid 5436
attr repetition 2
attr replication #2
attr resultdir results
attr rhdrq 3
attr runnumber 2
attr seedset 2

scalar . 	as 	1
scalar . 	dnor 	20
scalar . 	rhdrq 	3
scalar Network700.node610 	rate_of_requesters 	1
scalar Network700.node610 	number_of_resources 	38500
scalar Network700.node610 	time_period 	1
scalar Network700.node610 	number_of_messages 	42
scalar Network700.node610 	discovery_latency 	264
scalar Network700.node610 	number_of_desired_resources 	20
scalar Network700.node610 	query_homogenity_rate 	33.333333333333
scalar Network700.node610 	qrecord_time 	4906
scalar Network700.node610 	discovery_resolution_rate 	100
scalar Network700.node560 	rate_of_requesters 	1
scalar Network700.node560 	number_of_resources 	38500
scalar Network700.node560 	time_period 	1
scalar Network700.node560 	number_of_messages 	46
scalar Network700.node560 	discovery_latency 	510
scalar Network700.node560 	number_of_desired_resources 	20
scalar Network700.node560 	query_homogenity_rate 	33.333333333333
scalar Network700.node560 	qrecord_time 	5242
scalar Network700.node560 	discovery_resolution_rate 	100
scalar Network700.node160 	rate_of_requesters 	1
scalar Network700.node160 	number_of_resources 	38500
scalar Network700.node160 	time_period 	1
scalar Network700.node160 	number_of_messages 	48
scalar Network700.node160 	discovery_latency 	4080
scalar Network700.node160 	number_of_desired_resources 	20
scalar Network700.node160 	query_homogenity_rate 	33.333333333333
scalar Network700.node160 	qrecord_time 	8788
scalar Network700.node160 	discovery_resolution_rate 	66.666666666667
scalar Network700.node450 	rate_of_requesters 	1
scalar Network700.node450 	number_of_resources 	38500
scalar Network700.node450 	time_period 	1
scalar Network700.node450 	number_of_messages 	33
scalar Network700.node450 	discovery_latency 	4128
scalar Network700.node450 	number_of_desired_resources 	20
scalar Network700.node450 	query_homogenity_rate 	33.333333333333
scalar Network700.node450 	qrecord_time 	8866
scalar Network700.node450 	discovery_resolution_rate 	66.666666666667
scalar Network700.node80 	rate_of_requesters 	1
scalar Network700.node80 	number_of_resources 	38500
scalar Network700.node80 	time_period 	1
scalar Network700.node80 	number_of_messages 	26
scalar Network700.node80 	discovery_latency 	4164
scalar Network700.node80 	number_of_desired_resources 	20
scalar Network700.node80 	query_homogenity_rate 	33.333333333333
scalar Network700.node80 	qrecord_time 	8878
scalar Network700.node80 	discovery_resolution_rate 	66.666666666667
scalar Network700.node570 	rate_of_requesters 	1
scalar Network700.node570 	number_of_resources 	38500
scalar Network700.node570 	time_period 	1
scalar Network700.node570 	number_of_messages 	27
scalar Network700.node570 	discovery_latency 	4200
scalar Network700.node570 	number_of_desired_resources 	20
scalar Network700.node570 	query_homogenity_rate 	33.333333333333
scalar Network700.node570 	qrecord_time 	8884
scalar Network700.node570 	discovery_resolution_rate 	66.666666666667
scalar Network700.node510 	rate_of_requesters 	1
scalar Network700.node510 	number_of_resources 	38500
scalar Network700.node510 	time_period 	1
scalar Network700.node510 	number_of_messages 	14
scalar Network700.node510 	discovery_latency 	4176
scalar Network700.node510 	number_of_desired_resources 	20
scalar Network700.node510 	query_homogenity_rate 	33.333333333333
scalar Network700.node510 	qrecord_time 	8890
scalar Network700.node510 	discovery_resolution_rate 	66.666666666667
scalar Network700.node640 	rate_of_requesters 	1
scalar Network700.node640 	number_of_resources 	38500
scalar Network700.node640 	time_period 	1
scalar Network700.node640 	number_of_messages 	28
scalar Network700.node640 	discovery_latency 	4236
scalar Network700.node640 	number_of_desired_resources 	20
scalar Network700.node640 	query_homogenity_rate 	33.333333333333
scalar Network700.node640 	qrecord_time 	8920
scalar Network700.node640 	discovery_resolution_rate 	66.666666666667
scalar Network700.node170 	rate_of_requesters 	1
scalar Network700.node170 	number_of_resources 	38500
scalar Network700.node170 	time_period 	1
scalar Network700.node170 	number_of_messages 	21
scalar Network700.node170 	discovery_latency 	4200
scalar Network700.node170 	number_of_desired_resources 	20
scalar Network700.node170 	query_homogenity_rate 	33.333333333333
scalar Network700.node170 	qrecord_time 	8920
scalar Network700.node170 	discovery_resolution_rate 	66.666666666667
scalar Network700.node460 	rate_of_requesters 	1
scalar Network700.node460 	number_of_resources 	38500
scalar Network700.node460 	time_period 	1
scalar Network700.node460 	number_of_messages 	14
scalar Network700.node460 	discovery_latency 	4236
scalar Network700.node460 	number_of_desired_resources 	20
scalar Network700.node460 	query_homogenity_rate 	33.333333333333
scalar Network700.node460 	qrecord_time 	8926
scalar Network700.node460 	discovery_resolution_rate 	66.666666666667
scalar Network700.node180 	rate_of_requesters 	1
scalar Network700.node180 	number_of_resources 	38500
scalar Network700.node180 	time_period 	1
scalar Network700.node180 	number_of_messages 	16
scalar Network700.node180 	discovery_latency 	4224
scalar Network700.node180 	number_of_desired_resources 	20
scalar Network700.node180 	query_homogenity_rate 	33.333333333333
scalar Network700.node180 	qrecord_time 	8950
scalar Network700.node180 	discovery_resolution_rate 	66.666666666667
scalar Network700.node410 	rate_of_requesters 	1
scalar Network700.node410 	number_of_resources 	38500
scalar Network700.node410 	time_period 	1
scalar Network700.node410 	number_of_messages 	20
scalar Network700.node410 	discovery_latency 	4248
scalar Network700.node410 	number_of_desired_resources 	20
scalar Network700.node410 	query_homogenity_rate 	33.333333333333
scalar Network700.node410 	qrecord_time 	8986
scalar Network700.node410 	discovery_resolution_rate 	66.666666666667
scalar Network700.node250 	rate_of_requesters 	1
scalar Network700.node250 	number_of_resources 	38500
scalar Network700.node250 	time_period 	1
scalar Network700.node250 	number_of_messages 	17
scalar Network700.node250 	discovery_latency 	4260
scalar Network700.node250 	number_of_desired_resources 	20
scalar Network700.node250 	query_homogenity_rate 	33.333333333333
scalar Network700.node250 	qrecord_time 	9034
scalar Network700.node250 	discovery_resolution_rate 	66.666666666667
scalar Network700.node520 	rate_of_requesters 	1
scalar Network700.node520 	number_of_resources 	38500
scalar Network700.node520 	time_period 	1
scalar Network700.node520 	number_of_messages 	16
scalar Network700.node520 	discovery_latency 	4332
scalar Network700.node520 	number_of_desired_resources 	20
scalar Network700.node520 	query_homogenity_rate 	33.333333333333
scalar Network700.node520 	qrecord_time 	9058
scalar Network700.node520 	discovery_resolution_rate 	66.666666666667
scalar Network700.node10 	rate_of_requesters 	1
scalar Network700.node10 	number_of_resources 	38500
scalar Network700.node10 	time_period 	1
scalar Network700.node10 	number_of_messages 	6
scalar Network700.node10 	discovery_latency 	4380
scalar Network700.node10 	number_of_desired_resources 	20
scalar Network700.node10 	query_homogenity_rate 	33.333333333333
scalar Network700.node10 	qrecord_time 	9094
scalar Network700.node10 	discovery_resolution_rate 	33.333333333333
scalar Network700.node280 	rate_of_requesters 	1
scalar Network700.node280 	number_of_resources 	38500
scalar Network700.node280 	time_period 	1
scalar Network700.node280 	number_of_messages 	8
scalar Network700.node280 	discovery_latency 	4452
scalar Network700.node280 	number_of_desired_resources 	20
scalar Network700.node280 	query_homogenity_rate 	33.333333333333
scalar Network700.node280 	qrecord_time 	9124
scalar Network700.node280 	discovery_resolution_rate 	33.333333333333
scalar Network700.node40 	rate_of_requesters 	1
scalar Network700.node40 	number_of_resources 	38500
scalar Network700.node40 	time_period 	1
scalar Network700.node40 	number_of_messages 	20
scalar Network700.node40 	discovery_latency 	4404
scalar Network700.node40 	number_of_desired_resources 	20
scalar Network700.node40 	query_homogenity_rate 	33.333333333333
scalar Network700.node40 	qrecord_time 	9142
scalar Network700.node40 	discovery_resolution_rate 	66.666666666667
scalar Network700.node620 	rate_of_requesters 	1
scalar Network700.node620 	number_of_resources 	38500
scalar Network700.node620 	time_period 	1
scalar Network700.node620 	number_of_messages 	7
scalar Network700.node620 	discovery_latency 	4464
scalar Network700.node620 	number_of_desired_resources 	20
scalar Network700.node620 	query_homogenity_rate 	33.333333333333
scalar Network700.node620 	qrecord_time 	9148
scalar Network700.node620 	discovery_resolution_rate 	33.333333333333
scalar Network700.node360 	rate_of_requesters 	1
scalar Network700.node360 	number_of_resources 	38500
scalar Network700.node360 	time_period 	1
scalar Network700.node360 	number_of_messages 	17
scalar Network700.node360 	discovery_latency 	4440
scalar Network700.node360 	number_of_desired_resources 	20
scalar Network700.node360 	query_homogenity_rate 	33.333333333333
scalar Network700.node360 	qrecord_time 	9154
scalar Network700.node360 	discovery_resolution_rate 	33.333333333333
scalar Network700.node370 	rate_of_requesters 	1
scalar Network700.node370 	number_of_resources 	38500
scalar Network700.node370 	time_period 	1
scalar Network700.node370 	number_of_messages 	14
scalar Network700.node370 	discovery_latency 	4416
scalar Network700.node370 	number_of_desired_resources 	20
scalar Network700.node370 	query_homogenity_rate 	33.333333333333
scalar Network700.node370 	qrecord_time 	9160
scalar Network700.node370 	discovery_resolution_rate 	66.666666666667
scalar Network700.node430 	rate_of_requesters 	1
scalar Network700.node430 	number_of_resources 	38500
scalar Network700.node430 	time_period 	1
scalar Network700.node430 	number_of_messages 	23
scalar Network700.node430 	discovery_latency 	4488
scalar Network700.node430 	number_of_desired_resources 	20
scalar Network700.node430 	query_homogenity_rate 	33.333333333333
scalar Network700.node430 	qrecord_time 	9172
scalar Network700.node430 	discovery_resolution_rate 	33.333333333333
scalar Network700.node420 	rate_of_requesters 	1
scalar Network700.node420 	number_of_resources 	38500
scalar Network700.node420 	time_period 	1
scalar Network700.node420 	number_of_messages 	4
scalar Network700.node420 	discovery_latency 	4476
scalar Network700.node420 	number_of_desired_resources 	20
scalar Network700.node420 	query_homogenity_rate 	33.333333333333
scalar Network700.node420 	qrecord_time 	9190
scalar Network700.node420 	discovery_resolution_rate 	33.333333333333
scalar Network700.node600 	rate_of_requesters 	1
scalar Network700.node600 	number_of_resources 	38500
scalar Network700.node600 	time_period 	1
scalar Network700.node600 	number_of_messages 	7
scalar Network700.node600 	discovery_latency 	4512
scalar Network700.node600 	number_of_desired_resources 	20
scalar Network700.node600 	query_homogenity_rate 	33.333333333333
scalar Network700.node600 	qrecord_time 	9208
scalar Network700.node600 	discovery_resolution_rate 	33.333333333333
scalar Network700.node580 	rate_of_requesters 	1
scalar Network700.node580 	number_of_resources 	38500
scalar Network700.node580 	time_period 	1
scalar Network700.node580 	number_of_messages 	8
scalar Network700.node580 	discovery_latency 	4500
scalar Network700.node580 	number_of_desired_resources 	20
scalar Network700.node580 	query_homogenity_rate 	33.333333333333
scalar Network700.node580 	qrecord_time 	9214
scalar Network700.node580 	discovery_resolution_rate 	33.333333333333
scalar Network700.node480 	rate_of_requesters 	1
scalar Network700.node480 	number_of_resources 	38500
scalar Network700.node480 	time_period 	1
scalar Network700.node480 	number_of_messages 	34
scalar Network700.node480 	discovery_latency 	4464
scalar Network700.node480 	number_of_desired_resources 	20
scalar Network700.node480 	query_homogenity_rate 	33.333333333333
scalar Network700.node480 	qrecord_time 	9220
scalar Network700.node480 	discovery_resolution_rate 	33.333333333333
scalar Network700.node630 	rate_of_requesters 	1
scalar Network700.node630 	number_of_resources 	38500
scalar Network700.node630 	time_period 	1
scalar Network700.node630 	number_of_messages 	26
scalar Network700.node630 	discovery_latency 	4548
scalar Network700.node630 	number_of_desired_resources 	20
scalar Network700.node630 	query_homogenity_rate 	33.333333333333
scalar Network700.node630 	qrecord_time 	9220
scalar Network700.node630 	discovery_resolution_rate 	33.333333333333
scalar Network700.node310 	rate_of_requesters 	1
scalar Network700.node310 	number_of_resources 	38500
scalar Network700.node310 	time_period 	1
scalar Network700.node310 	number_of_messages 	33
scalar Network700.node310 	discovery_latency 	4500
scalar Network700.node310 	number_of_desired_resources 	20
scalar Network700.node310 	query_homogenity_rate 	33.333333333333
scalar Network700.node310 	qrecord_time 	9232
scalar Network700.node310 	discovery_resolution_rate 	33.333333333333
scalar Network700.node590 	rate_of_requesters 	1
scalar Network700.node590 	number_of_resources 	38500
scalar Network700.node590 	time_period 	1
scalar Network700.node590 	number_of_messages 	13
scalar Network700.node590 	discovery_latency 	4464
scalar Network700.node590 	number_of_desired_resources 	20
scalar Network700.node590 	query_homogenity_rate 	33.333333333333
scalar Network700.node590 	qrecord_time 	9232
scalar Network700.node590 	discovery_resolution_rate 	33.333333333333
scalar Network700.node150 	rate_of_requesters 	1
scalar Network700.node150 	number_of_resources 	38500
scalar Network700.node150 	time_period 	1
scalar Network700.node150 	number_of_messages 	40
scalar Network700.node150 	discovery_latency 	4536
scalar Network700.node150 	number_of_desired_resources 	20
scalar Network700.node150 	query_homogenity_rate 	33.333333333333
scalar Network700.node150 	qrecord_time 	9232
scalar Network700.node150 	discovery_resolution_rate 	33.333333333333
scalar Network700.node680 	rate_of_requesters 	1
scalar Network700.node680 	number_of_resources 	38500
scalar Network700.node680 	time_period 	1
scalar Network700.node680 	number_of_messages 	18
scalar Network700.node680 	discovery_latency 	4560
scalar Network700.node680 	number_of_desired_resources 	20
scalar Network700.node680 	query_homogenity_rate 	33.333333333333
scalar Network700.node680 	qrecord_time 	9244
scalar Network700.node680 	discovery_resolution_rate 	33.333333333333
scalar Network700.node70 	rate_of_requesters 	1
scalar Network700.node70 	number_of_resources 	38500
scalar Network700.node70 	time_period 	1
scalar Network700.node70 	number_of_messages 	6
scalar Network700.node70 	discovery_latency 	4524
scalar Network700.node70 	number_of_desired_resources 	20
scalar Network700.node70 	query_homogenity_rate 	33.333333333333
scalar Network700.node70 	qrecord_time 	9256
scalar Network700.node70 	discovery_resolution_rate 	33.333333333333
scalar Network700.node20 	rate_of_requesters 	1
scalar Network700.node20 	number_of_resources 	38500
scalar Network700.node20 	time_period 	1
scalar Network700.node20 	number_of_messages 	12
scalar Network700.node20 	discovery_latency 	4536
scalar Network700.node20 	number_of_desired_resources 	20
scalar Network700.node20 	query_homogenity_rate 	33.333333333333
scalar Network700.node20 	qrecord_time 	9286
scalar Network700.node20 	discovery_resolution_rate 	33.333333333333
scalar Network700.node330 	rate_of_requesters 	1
scalar Network700.node330 	number_of_resources 	38500
scalar Network700.node330 	time_period 	1
scalar Network700.node330 	number_of_messages 	5
scalar Network700.node330 	discovery_latency 	4536
scalar Network700.node330 	number_of_desired_resources 	20
scalar Network700.node330 	query_homogenity_rate 	33.333333333333
scalar Network700.node330 	qrecord_time 	9304
scalar Network700.node330 	discovery_resolution_rate 	33.333333333333
scalar Network700.node530 	rate_of_requesters 	1
scalar Network700.node530 	number_of_resources 	38500
scalar Network700.node530 	time_period 	1
scalar Network700.node530 	number_of_messages 	19
scalar Network700.node530 	discovery_latency 	4584
scalar Network700.node530 	number_of_desired_resources 	20
scalar Network700.node530 	query_homogenity_rate 	33.333333333333
scalar Network700.node530 	qrecord_time 	9316
scalar Network700.node530 	discovery_resolution_rate 	33.333333333333
scalar Network700.node220 	rate_of_requesters 	1
scalar Network700.node220 	number_of_resources 	38500
scalar Network700.node220 	time_period 	1
scalar Network700.node220 	number_of_messages 	6
scalar Network700.node220 	discovery_latency 	4572
scalar Network700.node220 	number_of_desired_resources 	20
scalar Network700.node220 	query_homogenity_rate 	33.333333333333
scalar Network700.node220 	qrecord_time 	9322
scalar Network700.node220 	discovery_resolution_rate 	33.333333333333
scalar Network700.node500 	rate_of_requesters 	1
scalar Network700.node500 	number_of_resources 	38500
scalar Network700.node500 	time_period 	1
scalar Network700.node500 	number_of_messages 	12
scalar Network700.node500 	discovery_latency 	4596
scalar Network700.node500 	number_of_desired_resources 	20
scalar Network700.node500 	query_homogenity_rate 	33.333333333333
scalar Network700.node500 	qrecord_time 	9322
scalar Network700.node500 	discovery_resolution_rate 	33.333333333333
scalar Network700.node300 	rate_of_requesters 	1
scalar Network700.node300 	number_of_resources 	38500
scalar Network700.node300 	time_period 	1
scalar Network700.node300 	number_of_messages 	8
scalar Network700.node300 	discovery_latency 	4536
scalar Network700.node300 	number_of_desired_resources 	20
scalar Network700.node300 	query_homogenity_rate 	33.333333333333
scalar Network700.node300 	qrecord_time 	9328
scalar Network700.node300 	discovery_resolution_rate 	33.333333333333
scalar Network700.node100 	rate_of_requesters 	1
scalar Network700.node100 	number_of_resources 	38500
scalar Network700.node100 	time_period 	1
scalar Network700.node100 	number_of_messages 	4
scalar Network700.node100 	discovery_latency 	4632
scalar Network700.node100 	number_of_desired_resources 	20
scalar Network700.node100 	query_homogenity_rate 	33.333333333333
scalar Network700.node100 	qrecord_time 	9346
scalar Network700.node100 	discovery_resolution_rate 	33.333333333333
scalar Network700.node540 	rate_of_requesters 	1
scalar Network700.node540 	number_of_resources 	38500
scalar Network700.node540 	time_period 	1
scalar Network700.node540 	number_of_messages 	228
scalar Network700.node540 	discovery_latency 	4656
scalar Network700.node540 	number_of_desired_resources 	20
scalar Network700.node540 	query_homogenity_rate 	33.333333333333
scalar Network700.node540 	qrecord_time 	9346
scalar Network700.node540 	discovery_resolution_rate 	50
scalar Network700.node190 	rate_of_requesters 	1
scalar Network700.node190 	number_of_resources 	38500
scalar Network700.node190 	time_period 	1
scalar Network700.node190 	number_of_messages 	43
scalar Network700.node190 	discovery_latency 	4644
scalar Network700.node190 	number_of_desired_resources 	20
scalar Network700.node190 	query_homogenity_rate 	33.333333333333
scalar Network700.node190 	qrecord_time 	9358
scalar Network700.node190 	discovery_resolution_rate 	33.333333333333
scalar Network700.node660 	rate_of_requesters 	1
scalar Network700.node660 	number_of_resources 	38500
scalar Network700.node660 	time_period 	1
scalar Network700.node660 	number_of_messages 	10
scalar Network700.node660 	discovery_latency 	4644
scalar Network700.node660 	number_of_desired_resources 	20
scalar Network700.node660 	query_homogenity_rate 	33.333333333333
scalar Network700.node660 	qrecord_time 	9370
scalar Network700.node660 	discovery_resolution_rate 	33.333333333333
scalar Network700.node320 	rate_of_requesters 	1
scalar Network700.node320 	number_of_resources 	38500
scalar Network700.node320 	time_period 	1
scalar Network700.node320 	number_of_messages 	5
scalar Network700.node320 	discovery_latency 	4608
scalar Network700.node320 	number_of_desired_resources 	20
scalar Network700.node320 	query_homogenity_rate 	33.333333333333
scalar Network700.node320 	qrecord_time 	9376
scalar Network700.node320 	discovery_resolution_rate 	33.333333333333
scalar Network700.node50 	rate_of_requesters 	1
scalar Network700.node50 	number_of_resources 	38500
scalar Network700.node50 	time_period 	1
scalar Network700.node50 	number_of_messages 	38
scalar Network700.node50 	discovery_latency 	4656
scalar Network700.node50 	number_of_desired_resources 	20
scalar Network700.node50 	query_homogenity_rate 	33.333333333333
scalar Network700.node50 	qrecord_time 	9388
scalar Network700.node50 	discovery_resolution_rate 	66.666666666667
scalar Network700.node290 	rate_of_requesters 	1
scalar Network700.node290 	number_of_resources 	38500
scalar Network700.node290 	time_period 	1
scalar Network700.node290 	number_of_messages 	5
scalar Network700.node290 	discovery_latency 	4656
scalar Network700.node290 	number_of_desired_resources 	20
scalar Network700.node290 	query_homogenity_rate 	33.333333333333
scalar Network700.node290 	qrecord_time 	9388
scalar Network700.node290 	discovery_resolution_rate 	33.333333333333
scalar Network700.node340 	rate_of_requesters 	1
scalar Network700.node340 	number_of_resources 	38500
scalar Network700.node340 	time_period 	1
scalar Network700.node340 	number_of_messages 	12
scalar Network700.node340 	discovery_latency 	4656
scalar Network700.node340 	number_of_desired_resources 	20
scalar Network700.node340 	query_homogenity_rate 	33.333333333333
scalar Network700.node340 	qrecord_time 	9400
scalar Network700.node340 	discovery_resolution_rate 	33.333333333333
scalar Network700.node210 	rate_of_requesters 	1
scalar Network700.node210 	number_of_resources 	38500
scalar Network700.node210 	time_period 	1
scalar Network700.node210 	number_of_messages 	4
scalar Network700.node210 	discovery_latency 	4692
scalar Network700.node210 	number_of_desired_resources 	20
scalar Network700.node210 	query_homogenity_rate 	33.333333333333
scalar Network700.node210 	qrecord_time 	9406
scalar Network700.node210 	discovery_resolution_rate 	33.333333333333
scalar Network700.node110 	rate_of_requesters 	1
scalar Network700.node110 	number_of_resources 	38500
scalar Network700.node110 	time_period 	1
scalar Network700.node110 	number_of_messages 	5
scalar Network700.node110 	discovery_latency 	4680
scalar Network700.node110 	number_of_desired_resources 	20
scalar Network700.node110 	query_homogenity_rate 	33.333333333333
scalar Network700.node110 	qrecord_time 	9418
scalar Network700.node110 	discovery_resolution_rate 	33.333333333333
scalar Network700.node470 	rate_of_requesters 	1
scalar Network700.node470 	number_of_resources 	38500
scalar Network700.node470 	time_period 	1
scalar Network700.node470 	number_of_messages 	11
scalar Network700.node470 	discovery_latency 	4722
scalar Network700.node470 	number_of_desired_resources 	20
scalar Network700.node470 	query_homogenity_rate 	33.333333333333
scalar Network700.node470 	qrecord_time 	9436
scalar Network700.node470 	discovery_resolution_rate 	33.333333333333
scalar Network700.node490 	rate_of_requesters 	1
scalar Network700.node490 	number_of_resources 	38500
scalar Network700.node490 	time_period 	1
scalar Network700.node490 	number_of_messages 	6
scalar Network700.node490 	discovery_latency 	4692
scalar Network700.node490 	number_of_desired_resources 	20
scalar Network700.node490 	query_homogenity_rate 	33.333333333333
scalar Network700.node490 	qrecord_time 	9442
scalar Network700.node490 	discovery_resolution_rate 	33.333333333333
scalar Network700.node130 	rate_of_requesters 	1
scalar Network700.node130 	number_of_resources 	38500
scalar Network700.node130 	time_period 	1
scalar Network700.node130 	number_of_messages 	218
scalar Network700.node130 	discovery_latency 	4722
scalar Network700.node130 	number_of_desired_resources 	20
scalar Network700.node130 	query_homogenity_rate 	33.333333333333
scalar Network700.node130 	qrecord_time 	9454
scalar Network700.node130 	discovery_resolution_rate 	16.666666666667
scalar Network700.node270 	rate_of_requesters 	1
scalar Network700.node270 	number_of_resources 	38500
scalar Network700.node270 	time_period 	1
scalar Network700.node270 	number_of_messages 	6
scalar Network700.node270 	discovery_latency 	4782
scalar Network700.node270 	number_of_desired_resources 	20
scalar Network700.node270 	query_homogenity_rate 	33.333333333333
scalar Network700.node270 	qrecord_time 	9472
scalar Network700.node270 	discovery_resolution_rate 	33.333333333333
scalar Network700.node230 	rate_of_requesters 	1
scalar Network700.node230 	number_of_resources 	38500
scalar Network700.node230 	time_period 	1
scalar Network700.node230 	number_of_messages 	15
scalar Network700.node230 	discovery_latency 	4752
scalar Network700.node230 	number_of_desired_resources 	20
scalar Network700.node230 	query_homogenity_rate 	33.333333333333
scalar Network700.node230 	qrecord_time 	9472
scalar Network700.node230 	discovery_resolution_rate 	33.333333333333
scalar Network700.node670 	rate_of_requesters 	1
scalar Network700.node670 	number_of_resources 	38500
scalar Network700.node670 	time_period 	1
scalar Network700.node670 	number_of_messages 	10
scalar Network700.node670 	discovery_latency 	4770
scalar Network700.node670 	number_of_desired_resources 	20
scalar Network700.node670 	query_homogenity_rate 	33.333333333333
scalar Network700.node670 	qrecord_time 	9478
scalar Network700.node670 	discovery_resolution_rate 	33.333333333333
scalar Network700.node0 	rate_of_requesters 	1
scalar Network700.node0 	number_of_resources 	38500
scalar Network700.node0 	time_period 	1
scalar Network700.node0 	number_of_messages 	220
scalar Network700.node0 	discovery_latency 	4788
scalar Network700.node0 	number_of_desired_resources 	20
scalar Network700.node0 	query_homogenity_rate 	33.333333333333
scalar Network700.node0 	qrecord_time 	9508
scalar Network700.node0 	discovery_resolution_rate 	50
scalar Network700.node200 	rate_of_requesters 	1
scalar Network700.node200 	number_of_resources 	38500
scalar Network700.node200 	time_period 	1
scalar Network700.node200 	number_of_messages 	8
scalar Network700.node200 	discovery_latency 	4806
scalar Network700.node200 	number_of_desired_resources 	20
scalar Network700.node200 	query_homogenity_rate 	33.333333333333
scalar Network700.node200 	qrecord_time 	9532
scalar Network700.node200 	discovery_resolution_rate 	33.333333333333
scalar Network700.node90 	rate_of_requesters 	1
scalar Network700.node90 	number_of_resources 	38500
scalar Network700.node90 	time_period 	1
scalar Network700.node90 	number_of_messages 	2
scalar Network700.node90 	discovery_latency 	4830
scalar Network700.node90 	number_of_desired_resources 	20
scalar Network700.node90 	query_homogenity_rate 	33.333333333333
scalar Network700.node90 	qrecord_time 	9544
scalar Network700.node90 	discovery_resolution_rate 	0
scalar Network700.node120 	rate_of_requesters 	1
scalar Network700.node120 	number_of_resources 	38500
scalar Network700.node120 	time_period 	1
scalar Network700.node120 	number_of_messages 	2
scalar Network700.node120 	discovery_latency 	4854
scalar Network700.node120 	number_of_desired_resources 	20
scalar Network700.node120 	query_homogenity_rate 	33.333333333333
scalar Network700.node120 	qrecord_time 	9586
scalar Network700.node120 	discovery_resolution_rate 	0
scalar Network700.node60 	rate_of_requesters 	1
scalar Network700.node60 	number_of_resources 	38500
scalar Network700.node60 	time_period 	1
scalar Network700.node60 	number_of_messages 	2
scalar Network700.node60 	discovery_latency 	4854
scalar Network700.node60 	number_of_desired_resources 	20
scalar Network700.node60 	query_homogenity_rate 	33.333333333333
scalar Network700.node60 	qrecord_time 	9592
scalar Network700.node60 	discovery_resolution_rate 	0
scalar Network700.node400 	rate_of_requesters 	1
scalar Network700.node400 	number_of_resources 	38500
scalar Network700.node400 	time_period 	1
scalar Network700.node400 	number_of_messages 	241
scalar Network700.node400 	discovery_latency 	4866
scalar Network700.node400 	number_of_desired_resources 	20
scalar Network700.node400 	query_homogenity_rate 	33.333333333333
scalar Network700.node400 	qrecord_time 	9640
scalar Network700.node400 	discovery_resolution_rate 	16.666666666667
scalar Network700.node390 	rate_of_requesters 	1
scalar Network700.node390 	number_of_resources 	38500
scalar Network700.node390 	time_period 	1
scalar Network700.node390 	number_of_messages 	2
scalar Network700.node390 	discovery_latency 	4854
scalar Network700.node390 	number_of_desired_resources 	20
scalar Network700.node390 	query_homogenity_rate 	33.333333333333
scalar Network700.node390 	qrecord_time 	9664
scalar Network700.node390 	discovery_resolution_rate 	0
scalar Network700.node690 	rate_of_requesters 	1
scalar Network700.node690 	number_of_resources 	38500
scalar Network700.node690 	time_period 	1
scalar Network700.node690 	number_of_messages 	2
scalar Network700.node690 	discovery_latency 	4866
scalar Network700.node690 	number_of_desired_resources 	20
scalar Network700.node690 	query_homogenity_rate 	33.333333333333
scalar Network700.node690 	qrecord_time 	9664
scalar Network700.node690 	discovery_resolution_rate 	0
scalar Network700.node550 	rate_of_requesters 	1
scalar Network700.node550 	number_of_resources 	38500
scalar Network700.node550 	time_period 	1
scalar Network700.node550 	number_of_messages 	6
scalar Network700.node550 	discovery_latency 	4926
scalar Network700.node550 	number_of_desired_resources 	20
scalar Network700.node550 	query_homogenity_rate 	33.333333333333
scalar Network700.node550 	qrecord_time 	9676
scalar Network700.node550 	discovery_resolution_rate 	33.333333333333
scalar Network700.node650 	rate_of_requesters 	1
scalar Network700.node650 	number_of_resources 	38500
scalar Network700.node650 	time_period 	1
scalar Network700.node650 	number_of_messages 	2
scalar Network700.node650 	discovery_latency 	4878
scalar Network700.node650 	number_of_desired_resources 	20
scalar Network700.node650 	query_homogenity_rate 	33.333333333333
scalar Network700.node650 	qrecord_time 	9688
scalar Network700.node650 	discovery_resolution_rate 	0
scalar Network700.node30 	rate_of_requesters 	1
scalar Network700.node30 	number_of_resources 	38500
scalar Network700.node30 	time_period 	2
scalar Network700.node30 	number_of_messages 	2
scalar Network700.node30 	discovery_latency 	4938
scalar Network700.node30 	number_of_desired_resources 	20
scalar Network700.node30 	query_homogenity_rate 	33.333333333333
scalar Network700.node30 	qrecord_time 	9699.722693174
scalar Network700.node30 	discovery_resolution_rate 	0
scalar Network700.node350 	rate_of_requesters 	1
scalar Network700.node350 	number_of_resources 	38500
scalar Network700.node350 	time_period 	1
scalar Network700.node350 	number_of_messages 	6
scalar Network700.node350 	discovery_latency 	4974
scalar Network700.node350 	number_of_desired_resources 	20
scalar Network700.node350 	query_homogenity_rate 	33.333333333333
scalar Network700.node350 	qrecord_time 	9700
scalar Network700.node350 	discovery_resolution_rate 	33.333333333333
scalar Network700.node140 	rate_of_requesters 	1
scalar Network700.node140 	number_of_resources 	38500
scalar Network700.node140 	time_period 	1
scalar Network700.node140 	number_of_messages 	2
scalar Network700.node140 	discovery_latency 	4950
scalar Network700.node140 	number_of_desired_resources 	20
scalar Network700.node140 	query_homogenity_rate 	33.333333333333
scalar Network700.node140 	qrecord_time 	9718
scalar Network700.node140 	discovery_resolution_rate 	0
scalar Network700.node440 	rate_of_requesters 	1
scalar Network700.node440 	number_of_resources 	38500
scalar Network700.node440 	time_period 	1
scalar Network700.node440 	number_of_messages 	2
scalar Network700.node440 	discovery_latency 	4926
scalar Network700.node440 	number_of_desired_resources 	20
scalar Network700.node440 	query_homogenity_rate 	33.333333333333
scalar Network700.node440 	qrecord_time 	9718
scalar Network700.node440 	discovery_resolution_rate 	0
scalar Network700.node30 	rate_of_requesters 	1
scalar Network700.node30 	number_of_resources 	38500
scalar Network700.node30 	time_period 	3
scalar Network700.node30 	number_of_messages 	2
scalar Network700.node30 	discovery_latency 	4770
scalar Network700.node30 	number_of_desired_resources 	20
scalar Network700.node30 	query_homogenity_rate 	33.333333333333
scalar Network700.node30 	qrecord_time 	9722.800282914
scalar Network700.node30 	discovery_resolution_rate 	0
scalar Network700.node380 	rate_of_requesters 	1
scalar Network700.node380 	number_of_resources 	38500
scalar Network700.node380 	time_period 	1
scalar Network700.node380 	number_of_messages 	2
scalar Network700.node380 	discovery_latency 	5046
scalar Network700.node380 	number_of_desired_resources 	20
scalar Network700.node380 	query_homogenity_rate 	33.333333333333
scalar Network700.node380 	qrecord_time 	9760
scalar Network700.node380 	discovery_resolution_rate 	0
scalar Network700.node30 	rate_of_requesters 	1
scalar Network700.node30 	number_of_resources 	38500
scalar Network700.node30 	time_period 	1
scalar Network700.node30 	number_of_messages 	6
scalar Network700.node30 	discovery_latency 	5106
scalar Network700.node30 	number_of_desired_resources 	20
scalar Network700.node30 	query_homogenity_rate 	33.333333333333
scalar Network700.node30 	qrecord_time 	9772
scalar Network700.node30 	discovery_resolution_rate 	33.333333333333
scalar Network700.node120 	rate_of_requesters 	1
scalar Network700.node120 	number_of_resources 	38500
scalar Network700.node120 	time_period 	2
scalar Network700.node120 	number_of_messages 	2
scalar Network700.node120 	discovery_latency 	4950
scalar Network700.node120 	number_of_desired_resources 	20
scalar Network700.node120 	query_homogenity_rate 	33.333333333333
scalar Network700.node120 	qrecord_time 	9785.861957223
scalar Network700.node120 	discovery_resolution_rate 	0
scalar Network700.node260 	rate_of_requesters 	1
scalar Network700.node260 	number_of_resources 	38500
scalar Network700.node260 	time_period 	1
scalar Network700.node260 	number_of_messages 	2
scalar Network700.node260 	discovery_latency 	5058
scalar Network700.node260 	number_of_desired_resources 	20
scalar Network700.node260 	query_homogenity_rate 	33.333333333333
scalar Network700.node260 	qrecord_time 	9814
scalar Network700.node260 	discovery_resolution_rate 	0
scalar Network700.node240 	rate_of_requesters 	1
scalar Network700.node240 	number_of_resources 	38500
scalar Network700.node240 	time_period 	1
scalar Network700.node240 	number_of_messages 	2
scalar Network700.node240 	discovery_latency 	5118
scalar Network700.node240 	number_of_desired_resources 	20
scalar Network700.node240 	query_homogenity_rate 	33.333333333333
scalar Network700.node240 	qrecord_time 	9874
scalar Network700.node240 	discovery_resolution_rate 	0
scalar Network700.node120 	rate_of_requesters 	1
scalar Network700.node120 	number_of_resources 	38500
scalar Network700.node120 	time_period 	3
scalar Network700.node120 	number_of_messages 	2
scalar Network700.node120 	discovery_latency 	4998
scalar Network700.node120 	number_of_desired_resources 	20
scalar Network700.node120 	query_homogenity_rate 	33.333333333333
scalar Network700.node120 	qrecord_time 	9970.683311704
scalar Network700.node120 	discovery_resolution_rate 	0
scalar Network700.node670 	rate_of_requesters 	1
scalar Network700.node670 	number_of_resources 	38500
scalar Network700.node670 	time_period 	2
scalar Network700.node670 	number_of_messages 	2
scalar Network700.node670 	discovery_latency 	4986
scalar Network700.node670 	number_of_desired_resources 	20
scalar Network700.node670 	query_homogenity_rate 	33.333333333333
scalar Network700.node670 	qrecord_time 	10018.81721065
scalar Network700.node670 	discovery_resolution_rate 	0
scalar Network700.node210 	rate_of_requesters 	1
scalar Network700.node210 	number_of_resources 	38500
scalar Network700.node210 	time_period 	2
scalar Network700.node210 	number_of_messages 	2
scalar Network700.node210 	discovery_latency 	5010
scalar Network700.node210 	number_of_desired_resources 	20
scalar Network700.node210 	query_homogenity_rate 	33.333333333333
scalar Network700.node210 	qrecord_time 	10019.353243291
scalar Network700.node210 	discovery_resolution_rate 	0
scalar Network700.node100 	rate_of_requesters 	1
scalar Network700.node100 	number_of_resources 	38500
scalar Network700.node100 	time_period 	2
scalar Network700.node100 	number_of_messages 	2
scalar Network700.node100 	discovery_latency 	5010
scalar Network700.node100 	number_of_desired_resources 	20
scalar Network700.node100 	query_homogenity_rate 	33.333333333333
scalar Network700.node100 	qrecord_time 	10085.998640125
scalar Network700.node100 	discovery_resolution_rate 	0
scalar Network700.node270 	rate_of_requesters 	1
scalar Network700.node270 	number_of_resources 	38500
scalar Network700.node270 	time_period 	2
scalar Network700.node270 	number_of_messages 	2
scalar Network700.node270 	discovery_latency 	4914
scalar Network700.node270 	number_of_desired_resources 	20
scalar Network700.node270 	query_homogenity_rate 	33.333333333333
scalar Network700.node270 	qrecord_time 	10116.983161368
scalar Network700.node270 	discovery_resolution_rate 	0
scalar Network700.node320 	rate_of_requesters 	1
scalar Network700.node320 	number_of_resources 	38500
scalar Network700.node320 	time_period 	2
scalar Network700.node320 	number_of_messages 	2
scalar Network700.node320 	discovery_latency 	5010
scalar Network700.node320 	number_of_desired_resources 	20
scalar Network700.node320 	query_homogenity_rate 	33.333333333333
scalar Network700.node320 	qrecord_time 	10252.180209294
scalar Network700.node320 	discovery_resolution_rate 	0
scalar Network700.node470 	rate_of_requesters 	1
scalar Network700.node470 	number_of_resources 	38500
scalar Network700.node470 	time_period 	2
scalar Network700.node470 	number_of_messages 	2
scalar Network700.node470 	discovery_latency 	4782
scalar Network700.node470 	number_of_desired_resources 	20
scalar Network700.node470 	query_homogenity_rate 	33.333333333333
scalar Network700.node470 	qrecord_time 	10308.235845717
scalar Network700.node470 	discovery_resolution_rate 	0
scalar Network700.node90 	rate_of_requesters 	1
scalar Network700.node90 	number_of_resources 	38500
scalar Network700.node90 	time_period 	2
scalar Network700.node90 	number_of_messages 	2
scalar Network700.node90 	discovery_latency 	4950
scalar Network700.node90 	number_of_desired_resources 	20
scalar Network700.node90 	query_homogenity_rate 	33.333333333333
scalar Network700.node90 	qrecord_time 	10421.633093989
scalar Network700.node90 	discovery_resolution_rate 	0
scalar Network700.node240 	rate_of_requesters 	1
scalar Network700.node240 	number_of_resources 	38500
scalar Network700.node240 	time_period 	2
scalar Network700.node240 	number_of_messages 	2
scalar Network700.node240 	discovery_latency 	5178
scalar Network700.node240 	number_of_desired_resources 	20
scalar Network700.node240 	query_homogenity_rate 	33.333333333333
scalar Network700.node240 	qrecord_time 	10451.312211615
scalar Network700.node240 	discovery_resolution_rate 	0
scalar Network700.node670 	rate_of_requesters 	1
scalar Network700.node670 	number_of_resources 	38500
scalar Network700.node670 	time_period 	3
scalar Network700.node670 	number_of_messages 	2
scalar Network700.node670 	discovery_latency 	4902
scalar Network700.node670 	number_of_desired_resources 	20
scalar Network700.node670 	query_homogenity_rate 	33.333333333333
scalar Network700.node670 	qrecord_time 	10522.500317135
scalar Network700.node670 	discovery_resolution_rate 	0
scalar Network700.node450 	rate_of_requesters 	1
scalar Network700.node450 	number_of_resources 	38500
scalar Network700.node450 	time_period 	2
scalar Network700.node450 	number_of_messages 	2
scalar Network700.node450 	discovery_latency 	5130
scalar Network700.node450 	number_of_desired_resources 	20
scalar Network700.node450 	query_homogenity_rate 	33.333333333333
scalar Network700.node450 	qrecord_time 	10523.778621203
scalar Network700.node450 	discovery_resolution_rate 	0
scalar Network700.node240 	rate_of_requesters 	1
scalar Network700.node240 	number_of_resources 	38500
scalar Network700.node240 	time_period 	3
scalar Network700.node240 	number_of_messages 	2
scalar Network700.node240 	discovery_latency 	5022
scalar Network700.node240 	number_of_desired_resources 	20
scalar Network700.node240 	query_homogenity_rate 	33.333333333333
scalar Network700.node240 	qrecord_time 	10577.116173576
scalar Network700.node240 	discovery_resolution_rate 	0
scalar Network700.node320 	rate_of_requesters 	1
scalar Network700.node320 	number_of_resources 	38500
scalar Network700.node320 	time_period 	3
scalar Network700.node320 	number_of_messages 	2
scalar Network700.node320 	discovery_latency 	5034
scalar Network700.node320 	number_of_desired_resources 	20
scalar Network700.node320 	query_homogenity_rate 	33.333333333333
scalar Network700.node320 	qrecord_time 	10587.079006197
scalar Network700.node320 	discovery_resolution_rate 	0
scalar Network700.node160 	rate_of_requesters 	1
scalar Network700.node160 	number_of_resources 	38500
scalar Network700.node160 	time_period 	2
scalar Network700.node160 	number_of_messages 	2
scalar Network700.node160 	discovery_latency 	5010
scalar Network700.node160 	number_of_desired_resources 	20
scalar Network700.node160 	query_homogenity_rate 	33.333333333333
scalar Network700.node160 	qrecord_time 	10596.817317826
scalar Network700.node160 	discovery_resolution_rate 	0
scalar Network700.node80 	rate_of_requesters 	1
scalar Network700.node80 	number_of_resources 	38500
scalar Network700.node80 	time_period 	2
scalar Network700.node80 	number_of_messages 	2
scalar Network700.node80 	discovery_latency 	5022
scalar Network700.node80 	number_of_desired_resources 	20
scalar Network700.node80 	query_homogenity_rate 	33.333333333333
scalar Network700.node80 	qrecord_time 	10666.467335899
scalar Network700.node80 	discovery_resolution_rate 	0
scalar Network700.node10 	rate_of_requesters 	1
scalar Network700.node10 	number_of_resources 	38500
scalar Network700.node10 	time_period 	2
scalar Network700.node10 	number_of_messages 	2
scalar Network700.node10 	discovery_latency 	4938
scalar Network700.node10 	number_of_desired_resources 	20
scalar Network700.node10 	query_homogenity_rate 	33.333333333333
scalar Network700.node10 	qrecord_time 	10706.0803687
scalar Network700.node10 	discovery_resolution_rate 	0
scalar Network700.node310 	rate_of_requesters 	1
scalar Network700.node310 	number_of_resources 	38500
scalar Network700.node310 	time_period 	2
scalar Network700.node310 	number_of_messages 	2
scalar Network700.node310 	discovery_latency 	4998
scalar Network700.node310 	number_of_desired_resources 	20
scalar Network700.node310 	query_homogenity_rate 	33.333333333333
scalar Network700.node310 	qrecord_time 	10778.238826111
scalar Network700.node310 	discovery_resolution_rate 	0
scalar Network700.node310 	rate_of_requesters 	1
scalar Network700.node310 	number_of_resources 	38500
scalar Network700.node310 	time_period 	3
scalar Network700.node310 	number_of_messages 	2
scalar Network700.node310 	discovery_latency 	4926
scalar Network700.node310 	number_of_desired_resources 	20
scalar Network700.node310 	query_homogenity_rate 	33.333333333333
scalar Network700.node310 	qrecord_time 	10835.494325991
scalar Network700.node310 	discovery_resolution_rate 	0
scalar Network700.node410 	rate_of_requesters 	1
scalar Network700.node410 	number_of_resources 	38500
scalar Network700.node410 	time_period 	2
scalar Network700.node410 	number_of_messages 	2
scalar Network700.node410 	discovery_latency 	4938
scalar Network700.node410 	number_of_desired_resources 	20
scalar Network700.node410 	query_homogenity_rate 	33.333333333333
scalar Network700.node410 	qrecord_time 	10865.118614337
scalar Network700.node410 	discovery_resolution_rate 	0
scalar Network700.node420 	rate_of_requesters 	1
scalar Network700.node420 	number_of_resources 	38500
scalar Network700.node420 	time_period 	2
scalar Network700.node420 	number_of_messages 	2
scalar Network700.node420 	discovery_latency 	4854
scalar Network700.node420 	number_of_desired_resources 	20
scalar Network700.node420 	query_homogenity_rate 	33.333333333333
scalar Network700.node420 	qrecord_time 	10943.431039025
scalar Network700.node420 	discovery_resolution_rate 	0
scalar Network700.node430 	rate_of_requesters 	1
scalar Network700.node430 	number_of_resources 	38500
scalar Network700.node430 	time_period 	2
scalar Network700.node430 	number_of_messages 	2
scalar Network700.node430 	discovery_latency 	4914
scalar Network700.node430 	number_of_desired_resources 	20
scalar Network700.node430 	query_homogenity_rate 	33.333333333333
scalar Network700.node430 	qrecord_time 	10999.15278205
scalar Network700.node430 	discovery_resolution_rate 	0
scalar Network700.node660 	rate_of_requesters 	1
scalar Network700.node660 	number_of_resources 	38500
scalar Network700.node660 	time_period 	2
scalar Network700.node660 	number_of_messages 	2
scalar Network700.node660 	discovery_latency 	5010
scalar Network700.node660 	number_of_desired_resources 	20
scalar Network700.node660 	query_homogenity_rate 	33.333333333333
scalar Network700.node660 	qrecord_time 	11032.467197527
scalar Network700.node660 	discovery_resolution_rate 	0
scalar Network700.node70 	rate_of_requesters 	1
scalar Network700.node70 	number_of_resources 	38500
scalar Network700.node70 	time_period 	2
scalar Network700.node70 	number_of_messages 	2
scalar Network700.node70 	discovery_latency 	5070
scalar Network700.node70 	number_of_desired_resources 	20
scalar Network700.node70 	query_homogenity_rate 	33.333333333333
scalar Network700.node70 	qrecord_time 	11177.618884231
scalar Network700.node70 	discovery_resolution_rate 	0
scalar Network700.node600 	rate_of_requesters 	1
scalar Network700.node600 	number_of_resources 	38500
scalar Network700.node600 	time_period 	2
scalar Network700.node600 	number_of_messages 	0
scalar Network700.node600 	discovery_latency 	4962
scalar Network700.node600 	number_of_desired_resources 	20
scalar Network700.node600 	query_homogenity_rate 	33.333333333333
scalar Network700.node600 	qrecord_time 	11180.529118334
scalar Network700.node600 	discovery_resolution_rate 	0
scalar Network700.node430 	rate_of_requesters 	1
scalar Network700.node430 	number_of_resources 	38500
scalar Network700.node430 	time_period 	3
scalar Network700.node430 	number_of_messages 	2
scalar Network700.node430 	discovery_latency 	5094
scalar Network700.node430 	number_of_desired_resources 	20
scalar Network700.node430 	query_homogenity_rate 	33.333333333333
scalar Network700.node430 	qrecord_time 	11217.162421914
scalar Network700.node430 	discovery_resolution_rate 	0
scalar Network700.node510 	rate_of_requesters 	1
scalar Network700.node510 	number_of_resources 	38500
scalar Network700.node510 	time_period 	2
scalar Network700.node510 	number_of_messages 	2
scalar Network700.node510 	discovery_latency 	4962
scalar Network700.node510 	number_of_desired_resources 	20
scalar Network700.node510 	query_homogenity_rate 	33.333333333333
scalar Network700.node510 	qrecord_time 	11317.528268935
scalar Network700.node510 	discovery_resolution_rate 	0
scalar Network700.node600 	rate_of_requesters 	1
scalar Network700.node600 	number_of_resources 	38500
scalar Network700.node600 	time_period 	3
scalar Network700.node600 	number_of_messages 	0
scalar Network700.node600 	discovery_latency 	4842
scalar Network700.node600 	number_of_desired_resources 	20
scalar Network700.node600 	query_homogenity_rate 	33.333333333333
scalar Network700.node600 	qrecord_time 	11513.453821461
scalar Network700.node600 	discovery_resolution_rate 	0
scalar Network700.node510 	rate_of_requesters 	1
scalar Network700.node510 	number_of_resources 	38500
scalar Network700.node510 	time_period 	3
scalar Network700.node510 	number_of_messages 	2
scalar Network700.node510 	discovery_latency 	4842
scalar Network700.node510 	number_of_desired_resources 	20
scalar Network700.node510 	query_homogenity_rate 	33.333333333333
scalar Network700.node510 	qrecord_time 	11513.978254789
scalar Network700.node510 	discovery_resolution_rate 	0
scalar Network700.node10 	rate_of_requesters 	1
scalar Network700.node10 	number_of_resources 	38500
scalar Network700.node10 	time_period 	3
scalar Network700.node10 	number_of_messages 	16
scalar Network700.node10 	discovery_latency 	4680
scalar Network700.node10 	number_of_desired_resources 	20
scalar Network700.node10 	query_homogenity_rate 	33.333333333333
scalar Network700.node10 	qrecord_time 	11539.36692925
scalar Network700.node10 	discovery_resolution_rate 	33.333333333333
scalar Network700.node330 	rate_of_requesters 	1
scalar Network700.node330 	number_of_resources 	38500
scalar Network700.node330 	time_period 	2
scalar Network700.node330 	number_of_messages 	2
scalar Network700.node330 	discovery_latency 	5070
scalar Network700.node330 	number_of_desired_resources 	20
scalar Network700.node330 	query_homogenity_rate 	33.333333333333
scalar Network700.node330 	qrecord_time 	11580.460284976
scalar Network700.node330 	discovery_resolution_rate 	0
scalar Network700.node200 	rate_of_requesters 	1
scalar Network700.node200 	number_of_resources 	38500
scalar Network700.node200 	time_period 	2
scalar Network700.node200 	number_of_messages 	2
scalar Network700.node200 	discovery_latency 	4902
scalar Network700.node200 	number_of_desired_resources 	20
scalar Network700.node200 	query_homogenity_rate 	33.333333333333
scalar Network700.node200 	qrecord_time 	11590.732271028
scalar Network700.node200 	discovery_resolution_rate 	0
scalar Network700.node20 	rate_of_requesters 	1
scalar Network700.node20 	number_of_resources 	38500
scalar Network700.node20 	time_period 	2
scalar Network700.node20 	number_of_messages 	40
scalar Network700.node20 	discovery_latency 	4986
scalar Network700.node20 	number_of_desired_resources 	20
scalar Network700.node20 	query_homogenity_rate 	33.333333333333
scalar Network700.node20 	qrecord_time 	11656.826658853
scalar Network700.node20 	discovery_resolution_rate 	33.333333333333
scalar Network700.node480 	rate_of_requesters 	1
scalar Network700.node480 	number_of_resources 	38500
scalar Network700.node480 	time_period 	2
scalar Network700.node480 	number_of_messages 	2
scalar Network700.node480 	discovery_latency 	4770
scalar Network700.node480 	number_of_desired_resources 	20
scalar Network700.node480 	query_homogenity_rate 	33.333333333333
scalar Network700.node480 	qrecord_time 	11738.001639768
scalar Network700.node480 	discovery_resolution_rate 	0
scalar Network700.node20 	rate_of_requesters 	1
scalar Network700.node20 	number_of_resources 	38500
scalar Network700.node20 	time_period 	3
scalar Network700.node20 	number_of_messages 	2
scalar Network700.node20 	discovery_latency 	5010
scalar Network700.node20 	number_of_desired_resources 	20
scalar Network700.node20 	query_homogenity_rate 	33.333333333333
scalar Network700.node20 	qrecord_time 	11743.864913513
scalar Network700.node20 	discovery_resolution_rate 	0
scalar Network700.node620 	rate_of_requesters 	1
scalar Network700.node620 	number_of_resources 	38500
scalar Network700.node620 	time_period 	2
scalar Network700.node620 	number_of_messages 	2
scalar Network700.node620 	discovery_latency 	4974
scalar Network700.node620 	number_of_desired_resources 	20
scalar Network700.node620 	query_homogenity_rate 	33.333333333333
scalar Network700.node620 	qrecord_time 	11900.753461135
scalar Network700.node620 	discovery_resolution_rate 	0
scalar Network700.node640 	rate_of_requesters 	1
scalar Network700.node640 	number_of_resources 	38500
scalar Network700.node640 	time_period 	2
scalar Network700.node640 	number_of_messages 	10
scalar Network700.node640 	discovery_latency 	5046
scalar Network700.node640 	number_of_desired_resources 	20
scalar Network700.node640 	query_homogenity_rate 	33.333333333333
scalar Network700.node640 	qrecord_time 	11967.974559934
scalar Network700.node640 	discovery_resolution_rate 	33.333333333333
scalar Network700.node380 	rate_of_requesters 	1
scalar Network700.node380 	number_of_resources 	38500
scalar Network700.node380 	time_period 	2
scalar Network700.node380 	number_of_messages 	2
scalar Network700.node380 	discovery_latency 	4998
scalar Network700.node380 	number_of_desired_resources 	20
scalar Network700.node380 	query_homogenity_rate 	33.333333333333
scalar Network700.node380 	qrecord_time 	12021.346440443
scalar Network700.node380 	discovery_resolution_rate 	0
scalar Network700.node610 	rate_of_requesters 	1
scalar Network700.node610 	number_of_resources 	38500
scalar Network700.node610 	time_period 	2
scalar Network700.node610 	number_of_messages 	2
scalar Network700.node610 	discovery_latency 	5046
scalar Network700.node610 	number_of_desired_resources 	20
scalar Network700.node610 	query_homogenity_rate 	33.333333333333
scalar Network700.node610 	qrecord_time 	12084.272650797
scalar Network700.node610 	discovery_resolution_rate 	0
scalar Network700.node20 	rate_of_requesters 	1
scalar Network700.node20 	number_of_resources 	38500
scalar Network700.node20 	time_period 	4
scalar Network700.node20 	number_of_messages 	2
scalar Network700.node20 	discovery_latency 	5094
scalar Network700.node20 	number_of_desired_resources 	20
scalar Network700.node20 	query_homogenity_rate 	33.333333333333
scalar Network700.node20 	qrecord_time 	12090.969971776
scalar Network700.node20 	discovery_resolution_rate 	0
scalar Network700.node300 	rate_of_requesters 	1
scalar Network700.node300 	number_of_resources 	38500
scalar Network700.node300 	time_period 	2
scalar Network700.node300 	number_of_messages 	2
scalar Network700.node300 	discovery_latency 	4878
scalar Network700.node300 	number_of_desired_resources 	20
scalar Network700.node300 	query_homogenity_rate 	33.333333333333
scalar Network700.node300 	qrecord_time 	12096.507682369
scalar Network700.node300 	discovery_resolution_rate 	0
scalar Network700.node420 	rate_of_requesters 	1
scalar Network700.node420 	number_of_resources 	38500
scalar Network700.node420 	time_period 	3
scalar Network700.node420 	number_of_messages 	2
scalar Network700.node420 	discovery_latency 	4842
scalar Network700.node420 	number_of_desired_resources 	20
scalar Network700.node420 	query_homogenity_rate 	33.333333333333
scalar Network700.node420 	qrecord_time 	12180.781288773
scalar Network700.node420 	discovery_resolution_rate 	0
scalar Network700.node390 	rate_of_requesters 	1
scalar Network700.node390 	number_of_resources 	38500
scalar Network700.node390 	time_period 	2
scalar Network700.node390 	number_of_messages 	2
scalar Network700.node390 	discovery_latency 	4974
scalar Network700.node390 	number_of_desired_resources 	20
scalar Network700.node390 	query_homogenity_rate 	33.333333333333
scalar Network700.node390 	qrecord_time 	12224.431258684
scalar Network700.node390 	discovery_resolution_rate 	0
scalar Network700.node190 	rate_of_requesters 	1
scalar Network700.node190 	number_of_resources 	38500
scalar Network700.node190 	time_period 	2
scalar Network700.node190 	number_of_messages 	2
scalar Network700.node190 	discovery_latency 	4986
scalar Network700.node190 	number_of_desired_resources 	20
scalar Network700.node190 	query_homogenity_rate 	33.333333333333
scalar Network700.node190 	qrecord_time 	12261.529273909
scalar Network700.node190 	discovery_resolution_rate 	0
scalar Network700.node150 	rate_of_requesters 	1
scalar Network700.node150 	number_of_resources 	38500
scalar Network700.node150 	time_period 	2
scalar Network700.node150 	number_of_messages 	0
scalar Network700.node150 	discovery_latency 	4854
scalar Network700.node150 	number_of_desired_resources 	20
scalar Network700.node150 	query_homogenity_rate 	33.333333333333
scalar Network700.node150 	qrecord_time 	12287.212333882
scalar Network700.node150 	discovery_resolution_rate 	0
scalar Network700.node40 	rate_of_requesters 	1
scalar Network700.node40 	number_of_resources 	38500
scalar Network700.node40 	time_period 	5
scalar Network700.node40 	number_of_messages 	32
scalar Network700.node40 	discovery_latency 	258
scalar Network700.node40 	number_of_desired_resources 	20
scalar Network700.node40 	query_homogenity_rate 	33.333333333333
scalar Network700.node40 	qrecord_time 	12306.177978996
scalar Network700.node40 	discovery_resolution_rate 	100
scalar Network700.node480 	rate_of_requesters 	1
scalar Network700.node480 	number_of_resources 	38500
scalar Network700.node480 	time_period 	3
scalar Network700.node480 	number_of_messages 	2
scalar Network700.node480 	discovery_latency 	4866
scalar Network700.node480 	number_of_desired_resources 	20
scalar Network700.node480 	query_homogenity_rate 	33.333333333333
scalar Network700.node480 	qrecord_time 	12352.137666154
scalar Network700.node480 	discovery_resolution_rate 	0
scalar Network700.node440 	rate_of_requesters 	1
scalar Network700.node440 	number_of_resources 	38500
scalar Network700.node440 	time_period 	2
scalar Network700.node440 	number_of_messages 	2
scalar Network700.node440 	discovery_latency 	5022
scalar Network700.node440 	number_of_desired_resources 	20
scalar Network700.node440 	query_homogenity_rate 	33.333333333333
scalar Network700.node440 	qrecord_time 	12486.390481488
scalar Network700.node440 	discovery_resolution_rate 	0
scalar Network700.node610 	rate_of_requesters 	1
scalar Network700.node610 	number_of_resources 	38500
scalar Network700.node610 	time_period 	3
scalar Network700.node610 	number_of_messages 	2
scalar Network700.node610 	discovery_latency 	5022
scalar Network700.node610 	number_of_desired_resources 	20
scalar Network700.node610 	query_homogenity_rate 	33.333333333333
scalar Network700.node610 	qrecord_time 	12519.2185302
scalar Network700.node610 	discovery_resolution_rate 	0
scalar Network700.node650 	rate_of_requesters 	1
scalar Network700.node650 	number_of_resources 	38500
scalar Network700.node650 	time_period 	2
scalar Network700.node650 	number_of_messages 	2
scalar Network700.node650 	discovery_latency 	4830
scalar Network700.node650 	number_of_desired_resources 	20
scalar Network700.node650 	query_homogenity_rate 	33.333333333333
scalar Network700.node650 	qrecord_time 	12524.269700996
scalar Network700.node650 	discovery_resolution_rate 	0
scalar Network700.node230 	rate_of_requesters 	1
scalar Network700.node230 	number_of_resources 	38500
scalar Network700.node230 	time_period 	2
scalar Network700.node230 	number_of_messages 	0
scalar Network700.node230 	discovery_latency 	4950
scalar Network700.node230 	number_of_desired_resources 	20
scalar Network700.node230 	query_homogenity_rate 	33.333333333333
scalar Network700.node230 	qrecord_time 	12590.262208322
scalar Network700.node230 	discovery_resolution_rate 	0
scalar Network700.node90 	rate_of_requesters 	1
scalar Network700.node90 	number_of_resources 	38500
scalar Network700.node90 	time_period 	3
scalar Network700.node90 	number_of_messages 	2
scalar Network700.node90 	discovery_latency 	5022
scalar Network700.node90 	number_of_desired_resources 	20
scalar Network700.node90 	query_homogenity_rate 	33.333333333333
scalar Network700.node90 	qrecord_time 	12634.238267371
scalar Network700.node90 	discovery_resolution_rate 	0
scalar Network700.node30 	rate_of_requesters 	1
scalar Network700.node30 	number_of_resources 	38500
scalar Network700.node30 	time_period 	4
scalar Network700.node30 	number_of_messages 	2
scalar Network700.node30 	discovery_latency 	4854
scalar Network700.node30 	number_of_desired_resources 	20
scalar Network700.node30 	query_homogenity_rate 	33.333333333333
scalar Network700.node30 	qrecord_time 	12663.448300676
scalar Network700.node30 	discovery_resolution_rate 	0
scalar Network700.node320 	rate_of_requesters 	1
scalar Network700.node320 	number_of_resources 	38500
scalar Network700.node320 	time_period 	4
scalar Network700.node320 	number_of_messages 	2
scalar Network700.node320 	discovery_latency 	5034
scalar Network700.node320 	number_of_desired_resources 	20
scalar Network700.node320 	query_homogenity_rate 	33.333333333333
scalar Network700.node320 	qrecord_time 	12670.963409097
scalar Network700.node320 	discovery_resolution_rate 	0
scalar Network700.node10 	rate_of_requesters 	1
scalar Network700.node10 	number_of_resources 	38500
scalar Network700.node10 	time_period 	4
scalar Network700.node10 	number_of_messages 	2
scalar Network700.node10 	discovery_latency 	5094
scalar Network700.node10 	number_of_desired_resources 	20
scalar Network700.node10 	query_homogenity_rate 	33.333333333333
scalar Network700.node10 	qrecord_time 	12714.866258793
scalar Network700.node10 	discovery_resolution_rate 	0
scalar Network700.node180 	rate_of_requesters 	1
scalar Network700.node180 	number_of_resources 	38500
scalar Network700.node180 	time_period 	2
scalar Network700.node180 	number_of_messages 	2
scalar Network700.node180 	discovery_latency 	4974
scalar Network700.node180 	number_of_desired_resources 	20
scalar Network700.node180 	query_homogenity_rate 	33.333333333333
scalar Network700.node180 	qrecord_time 	12840.318033836
scalar Network700.node180 	discovery_resolution_rate 	0
scalar Network700.node40 	rate_of_requesters 	1
scalar Network700.node40 	number_of_resources 	38500
scalar Network700.node40 	time_period 	2
scalar Network700.node40 	number_of_messages 	2
scalar Network700.node40 	discovery_latency 	5118
scalar Network700.node40 	number_of_desired_resources 	20
scalar Network700.node40 	query_homogenity_rate 	33.333333333333
scalar Network700.node40 	qrecord_time 	12895.148596303
scalar Network700.node40 	discovery_resolution_rate 	0
scalar Network700.node480 	rate_of_requesters 	1
scalar Network700.node480 	number_of_resources 	38500
scalar Network700.node480 	time_period 	4
scalar Network700.node480 	number_of_messages 	2
scalar Network700.node480 	discovery_latency 	4770
scalar Network700.node480 	number_of_desired_resources 	20
scalar Network700.node480 	query_homogenity_rate 	33.333333333333
scalar Network700.node480 	qrecord_time 	12943.50264206
scalar Network700.node480 	discovery_resolution_rate 	0
scalar Network700.node270 	rate_of_requesters 	1
scalar Network700.node270 	number_of_resources 	38500
scalar Network700.node270 	time_period 	3
scalar Network700.node270 	number_of_messages 	2
scalar Network700.node270 	discovery_latency 	5022
scalar Network700.node270 	number_of_desired_resources 	20
scalar Network700.node270 	query_homogenity_rate 	33.333333333333
scalar Network700.node270 	qrecord_time 	13057.312402619
scalar Network700.node270 	discovery_resolution_rate 	0
scalar Network700.node230 	rate_of_requesters 	1
scalar Network700.node230 	number_of_resources 	38500
scalar Network700.node230 	time_period 	3
scalar Network700.node230 	number_of_messages 	0
scalar Network700.node230 	discovery_latency 	4998
scalar Network700.node230 	number_of_desired_resources 	20
scalar Network700.node230 	query_homogenity_rate 	33.333333333333
scalar Network700.node230 	qrecord_time 	13085.138238008
scalar Network700.node230 	discovery_resolution_rate 	0
scalar Network700.node160 	rate_of_requesters 	1
scalar Network700.node160 	number_of_resources 	38500
scalar Network700.node160 	time_period 	3
scalar Network700.node160 	number_of_messages 	2
scalar Network700.node160 	discovery_latency 	4914
scalar Network700.node160 	number_of_desired_resources 	20
scalar Network700.node160 	query_homogenity_rate 	33.333333333333
scalar Network700.node160 	qrecord_time 	13089.749585561
scalar Network700.node160 	discovery_resolution_rate 	0
scalar Network700.node40 	rate_of_requesters 	1
scalar Network700.node40 	number_of_resources 	38500
scalar Network700.node40 	time_period 	3
scalar Network700.node40 	number_of_messages 	2
scalar Network700.node40 	discovery_latency 	5094
scalar Network700.node40 	number_of_desired_resources 	20
scalar Network700.node40 	query_homogenity_rate 	33.333333333333
scalar Network700.node40 	qrecord_time 	13158.355566435
scalar Network700.node40 	discovery_resolution_rate 	0
scalar Network700.node360 	rate_of_requesters 	1
scalar Network700.node360 	number_of_resources 	38500
scalar Network700.node360 	time_period 	2
scalar Network700.node360 	number_of_messages 	60
scalar Network700.node360 	discovery_latency 	4584
scalar Network700.node360 	number_of_desired_resources 	20
scalar Network700.node360 	query_homogenity_rate 	33.333333333333
scalar Network700.node360 	qrecord_time 	13173.411524444
scalar Network700.node360 	discovery_resolution_rate 	33.333333333333
scalar Network700.node240 	rate_of_requesters 	1
scalar Network700.node240 	number_of_resources 	38500
scalar Network700.node240 	time_period 	4
scalar Network700.node240 	number_of_messages 	2
scalar Network700.node240 	discovery_latency 	5106
scalar Network700.node240 	number_of_desired_resources 	20
scalar Network700.node240 	query_homogenity_rate 	33.333333333333
scalar Network700.node240 	qrecord_time 	13259.591042009
scalar Network700.node240 	discovery_resolution_rate 	0
scalar Network700.node110 	rate_of_requesters 	1
scalar Network700.node110 	number_of_resources 	38500
scalar Network700.node110 	time_period 	3
scalar Network700.node110 	number_of_messages 	71
scalar Network700.node110 	discovery_latency 	636
scalar Network700.node110 	number_of_desired_resources 	20
scalar Network700.node110 	query_homogenity_rate 	33.333333333333
scalar Network700.node110 	qrecord_time 	13302.83764823
scalar Network700.node110 	discovery_resolution_rate 	100
scalar Network700.node620 	rate_of_requesters 	1
scalar Network700.node620 	number_of_resources 	38500
scalar Network700.node620 	time_period 	3
scalar Network700.node620 	number_of_messages 	117
scalar Network700.node620 	discovery_latency 	4584
scalar Network700.node620 	number_of_desired_resources 	20
scalar Network700.node620 	query_homogenity_rate 	33.333333333333
scalar Network700.node620 	qrecord_time 	13303.405730697
scalar Network700.node620 	discovery_resolution_rate 	33.333333333333
scalar Network700.node460 	rate_of_requesters 	1
scalar Network700.node460 	number_of_resources 	38500
scalar Network700.node460 	time_period 	2
scalar Network700.node460 	number_of_messages 	2
scalar Network700.node460 	discovery_latency 	4914
scalar Network700.node460 	number_of_desired_resources 	20
scalar Network700.node460 	query_homogenity_rate 	33.333333333333
scalar Network700.node460 	qrecord_time 	13331.744837746
scalar Network700.node460 	discovery_resolution_rate 	0
scalar Network700.node70 	rate_of_requesters 	1
scalar Network700.node70 	number_of_resources 	38500
scalar Network700.node70 	time_period 	3
scalar Network700.node70 	number_of_messages 	2
scalar Network700.node70 	discovery_latency 	5118
scalar Network700.node70 	number_of_desired_resources 	20
scalar Network700.node70 	query_homogenity_rate 	33.333333333333
scalar Network700.node70 	qrecord_time 	13401.052544796
scalar Network700.node70 	discovery_resolution_rate 	0
scalar Network700.node500 	rate_of_requesters 	1
scalar Network700.node500 	number_of_resources 	38500
scalar Network700.node500 	time_period 	2
scalar Network700.node500 	number_of_messages 	2
scalar Network700.node500 	discovery_latency 	5022
scalar Network700.node500 	number_of_desired_resources 	20
scalar Network700.node500 	query_homogenity_rate 	33.333333333333
scalar Network700.node500 	qrecord_time 	13470.20350445
scalar Network700.node500 	discovery_resolution_rate 	0
scalar Network700.node520 	rate_of_requesters 	1
scalar Network700.node520 	number_of_resources 	38500
scalar Network700.node520 	time_period 	2
scalar Network700.node520 	number_of_messages 	2
scalar Network700.node520 	discovery_latency 	5022
scalar Network700.node520 	number_of_desired_resources 	20
scalar Network700.node520 	query_homogenity_rate 	33.333333333333
scalar Network700.node520 	qrecord_time 	13607.226724359
scalar Network700.node520 	discovery_resolution_rate 	0
scalar Network700.node650 	rate_of_requesters 	1
scalar Network700.node650 	number_of_resources 	38500
scalar Network700.node650 	time_period 	3
scalar Network700.node650 	number_of_messages 	2
scalar Network700.node650 	discovery_latency 	4866
scalar Network700.node650 	number_of_desired_resources 	20
scalar Network700.node650 	query_homogenity_rate 	33.333333333333
scalar Network700.node650 	qrecord_time 	13673.720701894
scalar Network700.node650 	discovery_resolution_rate 	0
scalar Network700.node370 	rate_of_requesters 	1
scalar Network700.node370 	number_of_resources 	38500
scalar Network700.node370 	time_period 	2
scalar Network700.node370 	number_of_messages 	0
scalar Network700.node370 	discovery_latency 	4914
scalar Network700.node370 	number_of_desired_resources 	20
scalar Network700.node370 	query_homogenity_rate 	33.333333333333
scalar Network700.node370 	qrecord_time 	13729.639506322
scalar Network700.node370 	discovery_resolution_rate 	0
scalar Network700.node70 	rate_of_requesters 	1
scalar Network700.node70 	number_of_resources 	38500
scalar Network700.node70 	time_period 	4
scalar Network700.node70 	number_of_messages 	2
scalar Network700.node70 	discovery_latency 	4950
scalar Network700.node70 	number_of_desired_resources 	20
scalar Network700.node70 	query_homogenity_rate 	33.333333333333
scalar Network700.node70 	qrecord_time 	13744.16747123
scalar Network700.node70 	discovery_resolution_rate 	0
scalar Network700.node50 	rate_of_requesters 	1
scalar Network700.node50 	number_of_resources 	38500
scalar Network700.node50 	time_period 	2
scalar Network700.node50 	number_of_messages 	2
scalar Network700.node50 	discovery_latency 	5010
scalar Network700.node50 	number_of_desired_resources 	20
scalar Network700.node50 	query_homogenity_rate 	33.333333333333
scalar Network700.node50 	qrecord_time 	13800.582529383
scalar Network700.node50 	discovery_resolution_rate 	0
scalar Network700.node550 	rate_of_requesters 	1
scalar Network700.node550 	number_of_resources 	38500
scalar Network700.node550 	time_period 	2
scalar Network700.node550 	number_of_messages 	34
scalar Network700.node550 	discovery_latency 	324
scalar Network700.node550 	number_of_desired_resources 	20
scalar Network700.node550 	query_homogenity_rate 	33.333333333333
scalar Network700.node550 	qrecord_time 	13807.22333911
scalar Network700.node550 	discovery_resolution_rate 	100
scalar Network700.node20 	rate_of_requesters 	1
scalar Network700.node20 	number_of_resources 	38500
scalar Network700.node20 	time_period 	5
scalar Network700.node20 	number_of_messages 	2
scalar Network700.node20 	discovery_latency 	4938
scalar Network700.node20 	number_of_desired_resources 	20
scalar Network700.node20 	query_homogenity_rate 	33.333333333333
scalar Network700.node20 	qrecord_time 	13825.230064765
scalar Network700.node20 	discovery_resolution_rate 	0
scalar Network700.node180 	rate_of_requesters 	1
scalar Network700.node180 	number_of_resources 	38500
scalar Network700.node180 	time_period 	3
scalar Network700.node180 	number_of_messages 	2
scalar Network700.node180 	discovery_latency 	5094
scalar Network700.node180 	number_of_desired_resources 	20
scalar Network700.node180 	query_homogenity_rate 	33.333333333333
scalar Network700.node180 	qrecord_time 	13913.884899439
scalar Network700.node180 	discovery_resolution_rate 	0
scalar Network700.node400 	rate_of_requesters 	1
scalar Network700.node400 	number_of_resources 	38500
scalar Network700.node400 	time_period 	2
scalar Network700.node400 	number_of_messages 	23
scalar Network700.node400 	discovery_latency 	4890
scalar Network700.node400 	number_of_desired_resources 	20
scalar Network700.node400 	query_homogenity_rate 	33.333333333333
scalar Network700.node400 	qrecord_time 	13918.631846256
scalar Network700.node400 	discovery_resolution_rate 	33.333333333333
scalar Network700.node0 	rate_of_requesters 	1
scalar Network700.node0 	number_of_resources 	38500
scalar Network700.node0 	time_period 	2
scalar Network700.node0 	number_of_messages 	0
scalar Network700.node0 	discovery_latency 	5022
scalar Network700.node0 	number_of_desired_resources 	20
scalar Network700.node0 	query_homogenity_rate 	33.333333333333
scalar Network700.node0 	qrecord_time 	13930.346223948
scalar Network700.node0 	discovery_resolution_rate 	0
scalar Network700.node30 	rate_of_requesters 	1
scalar Network700.node30 	number_of_resources 	38500
scalar Network700.node30 	time_period 	5
scalar Network700.node30 	number_of_messages 	18
scalar Network700.node30 	discovery_latency 	5058
scalar Network700.node30 	number_of_desired_resources 	20
scalar Network700.node30 	query_homogenity_rate 	33.333333333333
scalar Network700.node30 	qrecord_time 	14061.623547052
scalar Network700.node30 	discovery_resolution_rate 	33.333333333333
scalar Network700.node20 	rate_of_requesters 	1
scalar Network700.node20 	number_of_resources 	38500
scalar Network700.node20 	time_period 	6
scalar Network700.node20 	number_of_messages 	2
scalar Network700.node20 	discovery_latency 	4746
scalar Network700.node20 	number_of_desired_resources 	20
scalar Network700.node20 	query_homogenity_rate 	33.333333333333
scalar Network700.node20 	qrecord_time 	14126.539271437
scalar Network700.node20 	discovery_resolution_rate 	0
scalar Network700.node160 	rate_of_requesters 	1
scalar Network700.node160 	number_of_resources 	38500
scalar Network700.node160 	time_period 	4
scalar Network700.node160 	number_of_messages 	2
scalar Network700.node160 	discovery_latency 	4938
scalar Network700.node160 	number_of_desired_resources 	20
scalar Network700.node160 	query_homogenity_rate 	33.333333333333
scalar Network700.node160 	qrecord_time 	14143.999251969
scalar Network700.node160 	discovery_resolution_rate 	0
scalar Network700.node410 	rate_of_requesters 	1
scalar Network700.node410 	number_of_resources 	38500
scalar Network700.node410 	time_period 	4
scalar Network700.node410 	number_of_messages 	90
scalar Network700.node410 	discovery_latency 	4500
scalar Network700.node410 	number_of_desired_resources 	20
scalar Network700.node410 	query_homogenity_rate 	33.333333333333
scalar Network700.node410 	qrecord_time 	14165.485191361
scalar Network700.node410 	discovery_resolution_rate 	33.333333333333
scalar Network700.node60 	rate_of_requesters 	1
scalar Network700.node60 	number_of_resources 	38500
scalar Network700.node60 	time_period 	2
scalar Network700.node60 	number_of_messages 	60
scalar Network700.node60 	discovery_latency 	4620
scalar Network700.node60 	number_of_desired_resources 	20
scalar Network700.node60 	query_homogenity_rate 	33.333333333333
scalar Network700.node60 	qrecord_time 	14195.872713862
scalar Network700.node60 	discovery_resolution_rate 	33.333333333333
scalar Network700.node580 	rate_of_requesters 	1
scalar Network700.node580 	number_of_resources 	38500
scalar Network700.node580 	time_period 	2
scalar Network700.node580 	number_of_messages 	2
scalar Network700.node580 	discovery_latency 	4938
scalar Network700.node580 	number_of_desired_resources 	20
scalar Network700.node580 	query_homogenity_rate 	33.333333333333
scalar Network700.node580 	qrecord_time 	14358.577740852
scalar Network700.node580 	discovery_resolution_rate 	0
scalar Network700.node250 	rate_of_requesters 	1
scalar Network700.node250 	number_of_resources 	38500
scalar Network700.node250 	time_period 	2
scalar Network700.node250 	number_of_messages 	2
scalar Network700.node250 	discovery_latency 	4866
scalar Network700.node250 	number_of_desired_resources 	20
scalar Network700.node250 	query_homogenity_rate 	33.333333333333
scalar Network700.node250 	qrecord_time 	14483.558372859
scalar Network700.node250 	discovery_resolution_rate 	0
scalar Network700.node220 	rate_of_requesters 	1
scalar Network700.node220 	number_of_resources 	38500
scalar Network700.node220 	time_period 	2
scalar Network700.node220 	number_of_messages 	2
scalar Network700.node220 	discovery_latency 	5022
scalar Network700.node220 	number_of_desired_resources 	20
scalar Network700.node220 	query_homogenity_rate 	33.333333333333
scalar Network700.node220 	qrecord_time 	14494.612324492
scalar Network700.node220 	discovery_resolution_rate 	0
scalar Network700.node510 	rate_of_requesters 	1
scalar Network700.node510 	number_of_resources 	38500
scalar Network700.node510 	time_period 	4
scalar Network700.node510 	number_of_messages 	112
scalar Network700.node510 	discovery_latency 	4224
scalar Network700.node510 	number_of_desired_resources 	20
scalar Network700.node510 	query_homogenity_rate 	33.333333333333
scalar Network700.node510 	qrecord_time 	14566.13010615
scalar Network700.node510 	discovery_resolution_rate 	66.666666666667
scalar Network700.node410 	rate_of_requesters 	1
scalar Network700.node410 	number_of_resources 	38500
scalar Network700.node410 	time_period 	3
scalar Network700.node410 	number_of_messages 	2
scalar Network700.node410 	discovery_latency 	5166
scalar Network700.node410 	number_of_desired_resources 	20
scalar Network700.node410 	query_homogenity_rate 	33.333333333333
scalar Network700.node410 	qrecord_time 	14607.553507967
scalar Network700.node410 	discovery_resolution_rate 	0
scalar Network700.node330 	rate_of_requesters 	1
scalar Network700.node330 	number_of_resources 	38500
scalar Network700.node330 	time_period 	3
scalar Network700.node330 	number_of_messages 	2
scalar Network700.node330 	discovery_latency 	5058
scalar Network700.node330 	number_of_desired_resources 	20
scalar Network700.node330 	query_homogenity_rate 	33.333333333333
scalar Network700.node330 	qrecord_time 	14613.224685124
scalar Network700.node330 	discovery_resolution_rate 	0
scalar Network700.node570 	rate_of_requesters 	1
scalar Network700.node570 	number_of_resources 	38500
scalar Network700.node570 	time_period 	2
scalar Network700.node570 	number_of_messages 	2
scalar Network700.node570 	discovery_latency 	4914
scalar Network700.node570 	number_of_desired_resources 	20
scalar Network700.node570 	query_homogenity_rate 	33.333333333333
scalar Network700.node570 	qrecord_time 	14691.132962027
scalar Network700.node570 	discovery_resolution_rate 	0
scalar Network700.node500 	rate_of_requesters 	1
scalar Network700.node500 	number_of_resources 	38500
scalar Network700.node500 	time_period 	3
scalar Network700.node500 	number_of_messages 	2
scalar Network700.node500 	discovery_latency 	4878
scalar Network700.node500 	number_of_desired_resources 	20
scalar Network700.node500 	query_homogenity_rate 	33.333333333333
scalar Network700.node500 	qrecord_time 	14818.767664804
scalar Network700.node500 	discovery_resolution_rate 	0
scalar Network700.node210 	rate_of_requesters 	1
scalar Network700.node210 	number_of_resources 	38500
scalar Network700.node210 	time_period 	3
scalar Network700.node210 	number_of_messages 	2
scalar Network700.node210 	discovery_latency 	4842
scalar Network700.node210 	number_of_desired_resources 	20
scalar Network700.node210 	query_homogenity_rate 	33.333333333333
[...]
scalar Network700.node260 	number_of_desired_resources 	20
scalar Network700.node260 	query_homogenity_rate 	33.333333333333
scalar Network700.node260 	qrecord_time 	53312.102648382
scalar Network700.node260 	discovery_resolution_rate 	66.666666666667
scalar Network700.node170 	rate_of_requesters 	1
scalar Network700.node170 	number_of_resources 	38500
scalar Network700.node170 	time_period 	9
scalar Network700.node170 	number_of_messages 	70
scalar Network700.node170 	discovery_latency 	4224
scalar Network700.node170 	number_of_desired_resources 	20
scalar Network700.node170 	query_homogenity_rate 	33.333333333333
scalar Network700.node170 	qrecord_time 	53457.837993276
scalar Network700.node170 	discovery_resolution_rate 	66.666666666667
scalar Network700.node490 	rate_of_requesters 	1
scalar Network700.node490 	number_of_resources 	38500
scalar Network700.node490 	time_period 	5
scalar Network700.node490 	number_of_messages 	59
scalar Network700.node490 	discovery_latency 	4260
scalar Network700.node490 	number_of_desired_resources 	20
scalar Network700.node490 	query_homogenity_rate 	33.333333333333
scalar Network700.node490 	qrecord_time 	53501.021481748
scalar Network700.node490 	discovery_resolution_rate 	66.666666666667
scalar Network700.node660 	rate_of_requesters 	1
scalar Network700.node660 	number_of_resources 	38500
scalar Network700.node660 	time_period 	10
scalar Network700.node660 	number_of_messages 	57
scalar Network700.node660 	discovery_latency 	611.99999999999
scalar Network700.node660 	number_of_desired_resources 	20
scalar Network700.node660 	query_homogenity_rate 	33.333333333333
scalar Network700.node660 	qrecord_time 	53727.727380362
scalar Network700.node660 	discovery_resolution_rate 	100
scalar Network700.node250 	rate_of_requesters 	1
scalar Network700.node250 	number_of_resources 	38500
scalar Network700.node250 	time_period 	9
scalar Network700.node250 	number_of_messages 	47
scalar Network700.node250 	discovery_latency 	492
scalar Network700.node250 	number_of_desired_resources 	20
scalar Network700.node250 	query_homogenity_rate 	33.333333333333
scalar Network700.node250 	qrecord_time 	53863.933551479
scalar Network700.node250 	discovery_resolution_rate 	100
scalar Network700.node110 	rate_of_requesters 	1
scalar Network700.node110 	number_of_resources 	38500
scalar Network700.node110 	time_period 	7
scalar Network700.node110 	number_of_messages 	12
scalar Network700.node110 	discovery_latency 	4608
scalar Network700.node110 	number_of_desired_resources 	20
scalar Network700.node110 	query_homogenity_rate 	33.333333333333
scalar Network700.node110 	qrecord_time 	53977.225253108
scalar Network700.node110 	discovery_resolution_rate 	33.333333333333
scalar Network700.node340 	rate_of_requesters 	1
scalar Network700.node340 	number_of_resources 	38500
scalar Network700.node340 	time_period 	6
scalar Network700.node340 	number_of_messages 	36
scalar Network700.node340 	discovery_latency 	4680
scalar Network700.node340 	number_of_desired_resources 	20
scalar Network700.node340 	query_homogenity_rate 	33.333333333333
scalar Network700.node340 	qrecord_time 	54003.014358332
scalar Network700.node340 	discovery_resolution_rate 	66.666666666667
scalar Network700.node310 	rate_of_requesters 	1
scalar Network700.node310 	number_of_resources 	38500
scalar Network700.node310 	time_period 	10
scalar Network700.node310 	number_of_messages 	223
scalar Network700.node310 	discovery_latency 	4416
scalar Network700.node310 	number_of_desired_resources 	20
scalar Network700.node310 	query_homogenity_rate 	33.333333333333
scalar Network700.node310 	qrecord_time 	54188.279357086
scalar Network700.node310 	discovery_resolution_rate 	50
scalar Network700.node660 	rate_of_requesters 	1
scalar Network700.node660 	number_of_resources 	38500
scalar Network700.node660 	time_period 	9
scalar Network700.node660 	number_of_messages 	6
scalar Network700.node660 	discovery_latency 	4416
scalar Network700.node660 	number_of_desired_resources 	20
scalar Network700.node660 	query_homogenity_rate 	33.333333333333
scalar Network700.node660 	qrecord_time 	54420.790098527
scalar Network700.node660 	discovery_resolution_rate 	33.333333333333
scalar Network700.node110 	rate_of_requesters 	1
scalar Network700.node110 	number_of_resources 	38500
scalar Network700.node110 	time_period 	8
scalar Network700.node110 	number_of_messages 	53
scalar Network700.node110 	discovery_latency 	4224
scalar Network700.node110 	number_of_desired_resources 	20
scalar Network700.node110 	query_homogenity_rate 	33.333333333333
scalar Network700.node110 	qrecord_time 	54848.279234902
scalar Network700.node110 	discovery_resolution_rate 	66.666666666667
scalar Network700.node430 	rate_of_requesters 	1
scalar Network700.node430 	number_of_resources 	38500
scalar Network700.node430 	time_period 	10
scalar Network700.node430 	number_of_messages 	27
scalar Network700.node430 	discovery_latency 	192
scalar Network700.node430 	number_of_desired_resources 	20
scalar Network700.node430 	query_homogenity_rate 	33.333333333333
scalar Network700.node430 	qrecord_time 	54970.3008986
scalar Network700.node430 	discovery_resolution_rate 	100
scalar Network700.node200 	rate_of_requesters 	1
scalar Network700.node200 	number_of_resources 	38500
scalar Network700.node200 	time_period 	6
scalar Network700.node200 	number_of_messages 	43
scalar Network700.node200 	discovery_latency 	432
scalar Network700.node200 	number_of_desired_resources 	20
scalar Network700.node200 	query_homogenity_rate 	33.333333333333
scalar Network700.node200 	qrecord_time 	54970.824892829
scalar Network700.node200 	discovery_resolution_rate 	100
scalar Network700.node250 	rate_of_requesters 	1
scalar Network700.node250 	number_of_resources 	38500
scalar Network700.node250 	time_period 	10
scalar Network700.node250 	number_of_messages 	45
scalar Network700.node250 	discovery_latency 	300
scalar Network700.node250 	number_of_desired_resources 	20
scalar Network700.node250 	query_homogenity_rate 	33.333333333333
scalar Network700.node250 	qrecord_time 	54985.144599034
scalar Network700.node250 	discovery_resolution_rate 	100
scalar Network700.node550 	rate_of_requesters 	1
scalar Network700.node550 	number_of_resources 	38500
scalar Network700.node550 	time_period 	10
scalar Network700.node550 	number_of_messages 	32
scalar Network700.node550 	discovery_latency 	252
scalar Network700.node550 	number_of_desired_resources 	20
scalar Network700.node550 	query_homogenity_rate 	33.333333333333
scalar Network700.node550 	qrecord_time 	55201.677951185
scalar Network700.node550 	discovery_resolution_rate 	100
scalar Network700.node560 	rate_of_requesters 	1
scalar Network700.node560 	number_of_resources 	38500
scalar Network700.node560 	time_period 	10
scalar Network700.node560 	number_of_messages 	35
scalar Network700.node560 	discovery_latency 	252
scalar Network700.node560 	number_of_desired_resources 	20
scalar Network700.node560 	query_homogenity_rate 	33.333333333333
scalar Network700.node560 	qrecord_time 	55801.421661765
scalar Network700.node560 	discovery_resolution_rate 	100
scalar Network700.node400 	rate_of_requesters 	1
scalar Network700.node400 	number_of_resources 	38500
scalar Network700.node400 	time_period 	10
scalar Network700.node400 	number_of_messages 	33
scalar Network700.node400 	discovery_latency 	4044
scalar Network700.node400 	number_of_desired_resources 	20
scalar Network700.node400 	query_homogenity_rate 	33.333333333333
scalar Network700.node400 	qrecord_time 	56203.924093077
scalar Network700.node400 	discovery_resolution_rate 	66.666666666667
scalar Network700.node340 	rate_of_requesters 	1
scalar Network700.node340 	number_of_resources 	38500
scalar Network700.node340 	time_period 	7
scalar Network700.node340 	number_of_messages 	33
scalar Network700.node340 	discovery_latency 	252
scalar Network700.node340 	number_of_desired_resources 	20
scalar Network700.node340 	query_homogenity_rate 	33.333333333333
scalar Network700.node340 	qrecord_time 	56311.949171184
scalar Network700.node340 	discovery_resolution_rate 	100
scalar Network700.node110 	rate_of_requesters 	1
scalar Network700.node110 	number_of_resources 	38500
scalar Network700.node110 	time_period 	9
scalar Network700.node110 	number_of_messages 	22
scalar Network700.node110 	discovery_latency 	132.00000000001
scalar Network700.node110 	number_of_desired_resources 	20
scalar Network700.node110 	query_homogenity_rate 	33.333333333333
scalar Network700.node110 	qrecord_time 	56338.845284282
scalar Network700.node110 	discovery_resolution_rate 	100
scalar Network700.node50 	rate_of_requesters 	1
scalar Network700.node50 	number_of_resources 	38500
scalar Network700.node50 	time_period 	9
scalar Network700.node50 	number_of_messages 	27
scalar Network700.node50 	discovery_latency 	4248
scalar Network700.node50 	number_of_desired_resources 	20
scalar Network700.node50 	query_homogenity_rate 	33.333333333333
scalar Network700.node50 	qrecord_time 	56372.012369559
scalar Network700.node50 	discovery_resolution_rate 	66.666666666667
scalar Network700.node380 	rate_of_requesters 	1
scalar Network700.node380 	number_of_resources 	38500
scalar Network700.node380 	time_period 	10
scalar Network700.node380 	number_of_messages 	16
scalar Network700.node380 	discovery_latency 	4116
scalar Network700.node380 	number_of_desired_resources 	20
scalar Network700.node380 	query_homogenity_rate 	33.333333333333
scalar Network700.node380 	qrecord_time 	56442.815107671
scalar Network700.node380 	discovery_resolution_rate 	66.666666666667
scalar Network700.node430 	rate_of_requesters 	1
scalar Network700.node430 	number_of_resources 	38500
scalar Network700.node430 	time_period 	9
scalar Network700.node430 	number_of_messages 	25
scalar Network700.node430 	discovery_latency 	4272
scalar Network700.node430 	number_of_desired_resources 	20
scalar Network700.node430 	query_homogenity_rate 	33.333333333333
scalar Network700.node430 	qrecord_time 	56697.809632865
scalar Network700.node430 	discovery_resolution_rate 	66.666666666667
scalar Network700.node170 	rate_of_requesters 	1
scalar Network700.node170 	number_of_resources 	38500
scalar Network700.node170 	time_period 	10
scalar Network700.node170 	number_of_messages 	223
scalar Network700.node170 	discovery_latency 	4548
scalar Network700.node170 	number_of_desired_resources 	20
scalar Network700.node170 	query_homogenity_rate 	33.333333333333
scalar Network700.node170 	qrecord_time 	56984.116050779
scalar Network700.node170 	discovery_resolution_rate 	50
scalar Network700.node50 	rate_of_requesters 	1
scalar Network700.node50 	number_of_resources 	38500
scalar Network700.node50 	time_period 	10
scalar Network700.node50 	number_of_messages 	7
scalar Network700.node50 	discovery_latency 	4428
scalar Network700.node50 	number_of_desired_resources 	20
scalar Network700.node50 	query_homogenity_rate 	33.333333333333
scalar Network700.node50 	qrecord_time 	57203.674834854
scalar Network700.node50 	discovery_resolution_rate 	33.333333333333
scalar Network700.node180 	rate_of_requesters 	1
scalar Network700.node180 	number_of_resources 	38500
scalar Network700.node180 	time_period 	10
scalar Network700.node180 	number_of_messages 	11
scalar Network700.node180 	discovery_latency 	4476
scalar Network700.node180 	number_of_desired_resources 	20
scalar Network700.node180 	query_homogenity_rate 	33.333333333333
scalar Network700.node180 	qrecord_time 	57375.084499423
scalar Network700.node180 	discovery_resolution_rate 	33.333333333333
scalar Network700.node490 	rate_of_requesters 	1
scalar Network700.node490 	number_of_resources 	38500
scalar Network700.node490 	time_period 	8
scalar Network700.node490 	number_of_messages 	49
scalar Network700.node490 	discovery_latency 	4032
scalar Network700.node490 	number_of_desired_resources 	20
scalar Network700.node490 	query_homogenity_rate 	33.333333333333
scalar Network700.node490 	qrecord_time 	57680.903308759
scalar Network700.node490 	discovery_resolution_rate 	66.666666666667
scalar Network700.node550 	rate_of_requesters 	1
scalar Network700.node550 	number_of_resources 	38500
scalar Network700.node550 	time_period 	9
scalar Network700.node550 	number_of_messages 	60
scalar Network700.node550 	discovery_latency 	4068
scalar Network700.node550 	number_of_desired_resources 	20
scalar Network700.node550 	query_homogenity_rate 	33.333333333333
scalar Network700.node550 	qrecord_time 	57950.564694483
scalar Network700.node550 	discovery_resolution_rate 	66.666666666667
scalar Network700.node220 	rate_of_requesters 	1
scalar Network700.node220 	number_of_resources 	38500
scalar Network700.node220 	time_period 	10
scalar Network700.node220 	number_of_messages 	6
scalar Network700.node220 	discovery_latency 	4356
scalar Network700.node220 	number_of_desired_resources 	20
scalar Network700.node220 	query_homogenity_rate 	33.333333333333
scalar Network700.node220 	qrecord_time 	58102.544078973
scalar Network700.node220 	discovery_resolution_rate 	33.333333333333
scalar Network700.node490 	rate_of_requesters 	1
scalar Network700.node490 	number_of_resources 	38500
scalar Network700.node490 	time_period 	9
scalar Network700.node490 	number_of_messages 	8
scalar Network700.node490 	discovery_latency 	4260
scalar Network700.node490 	number_of_desired_resources 	20
scalar Network700.node490 	query_homogenity_rate 	33.333333333333
scalar Network700.node490 	qrecord_time 	58208.219217206
scalar Network700.node490 	discovery_resolution_rate 	33.333333333333
scalar Network700.node690 	rate_of_requesters 	1
scalar Network700.node690 	number_of_resources 	38500
scalar Network700.node690 	time_period 	7
scalar Network700.node690 	number_of_messages 	10
scalar Network700.node690 	discovery_latency 	4512
scalar Network700.node690 	number_of_desired_resources 	20
scalar Network700.node690 	query_homogenity_rate 	33.333333333333
scalar Network700.node690 	qrecord_time 	58577.113163908
scalar Network700.node690 	discovery_resolution_rate 	33.333333333333
scalar Network700.node690 	rate_of_requesters 	1
scalar Network700.node690 	number_of_resources 	38500
scalar Network700.node690 	time_period 	8
scalar Network700.node690 	number_of_messages 	18
scalar Network700.node690 	discovery_latency 	120
scalar Network700.node690 	number_of_desired_resources 	20
scalar Network700.node690 	query_homogenity_rate 	33.333333333333
scalar Network700.node690 	qrecord_time 	59189.254475718
scalar Network700.node690 	discovery_resolution_rate 	100
scalar Network700.node110 	rate_of_requesters 	1
scalar Network700.node110 	number_of_resources 	38500
scalar Network700.node110 	time_period 	10
scalar Network700.node110 	number_of_messages 	20
scalar Network700.node110 	discovery_latency 	144
scalar Network700.node110 	number_of_desired_resources 	20
scalar Network700.node110 	query_homogenity_rate 	33.333333333333
scalar Network700.node110 	qrecord_time 	59406.342363249
scalar Network700.node110 	discovery_resolution_rate 	100
scalar Network700.node690 	rate_of_requesters 	1
scalar Network700.node690 	number_of_resources 	38500
scalar Network700.node690 	time_period 	9
scalar Network700.node690 	number_of_messages 	18
scalar Network700.node690 	discovery_latency 	120
scalar Network700.node690 	number_of_desired_resources 	20
scalar Network700.node690 	query_homogenity_rate 	33.333333333333
scalar Network700.node690 	qrecord_time 	60503.137466115
scalar Network700.node690 	discovery_resolution_rate 	100
scalar Network700.node200 	rate_of_requesters 	1
scalar Network700.node200 	number_of_resources 	38500
scalar Network700.node200 	time_period 	7
scalar Network700.node200 	number_of_messages 	24
scalar Network700.node200 	discovery_latency 	168
scalar Network700.node200 	number_of_desired_resources 	20
scalar Network700.node200 	query_homogenity_rate 	33.333333333333
scalar Network700.node200 	qrecord_time 	61659.758990251
scalar Network700.node200 	discovery_resolution_rate 	100
scalar Network700.node690 	rate_of_requesters 	1
scalar Network700.node690 	number_of_resources 	38500
scalar Network700.node690 	time_period 	10
scalar Network700.node690 	number_of_messages 	18
scalar Network700.node690 	discovery_latency 	120
scalar Network700.node690 	number_of_desired_resources 	20
scalar Network700.node690 	query_homogenity_rate 	33.333333333333
scalar Network700.node690 	qrecord_time 	62745.439283749
scalar Network700.node690 	discovery_resolution_rate 	100
scalar Network700.node490 	rate_of_requesters 	1
scalar Network700.node490 	number_of_resources 	38500
scalar Network700.node490 	time_period 	10
scalar Network700.node490 	number_of_messages 	16
scalar Network700.node490 	discovery_latency 	120
scalar Network700.node490 	number_of_desired_resources 	20
scalar Network700.node490 	query_homogenity_rate 	33.333333333333
scalar Network700.node490 	qrecord_time 	66601.977596677
scalar Network700.node490 	discovery_resolution_rate 	100
scalar Network700.node340 	rate_of_requesters 	1
scalar Network700.node340 	number_of_resources 	38500
scalar Network700.node340 	time_period 	8
scalar Network700.node340 	number_of_messages 	24
scalar Network700.node340 	discovery_latency 	168.00000000001
scalar Network700.node340 	number_of_desired_resources 	20
scalar Network700.node340 	query_homogenity_rate 	33.333333333333
scalar Network700.node340 	qrecord_time 	67325.819001762
scalar Network700.node340 	discovery_resolution_rate 	100
scalar Network700.node200 	rate_of_requesters 	1
scalar Network700.node200 	number_of_resources 	38500
scalar Network700.node200 	time_period 	8
scalar Network700.node200 	number_of_messages 	24
scalar Network700.node200 	discovery_latency 	168.00000000001
scalar Network700.node200 	number_of_desired_resources 	20
scalar Network700.node200 	query_homogenity_rate 	33.333333333333
scalar Network700.node200 	qrecord_time 	67819.504889282
scalar Network700.node200 	discovery_resolution_rate 	100
scalar Network700.node200 	rate_of_requesters 	1
scalar Network700.node200 	number_of_resources 	38500
scalar Network700.node200 	time_period 	9
scalar Network700.node200 	number_of_messages 	24
scalar Network700.node200 	discovery_latency 	168.00000000001
scalar Network700.node200 	number_of_desired_resources 	20
scalar Network700.node200 	query_homogenity_rate 	33.333333333333
scalar Network700.node200 	qrecord_time 	68307.867704274
scalar Network700.node200 	discovery_resolution_rate 	100
scalar Network700.node200 	rate_of_requesters 	1
scalar Network700.node200 	number_of_resources 	38500
scalar Network700.node200 	time_period 	10
scalar Network700.node200 	number_of_messages 	24
scalar Network700.node200 	discovery_latency 	167.99999999999
scalar Network700.node200 	number_of_desired_resources 	20
scalar Network700.node200 	query_homogenity_rate 	33.333333333333
scalar Network700.node200 	qrecord_time 	71273.950368845
scalar Network700.node200 	discovery_resolution_rate 	100
scalar Network700.node340 	rate_of_requesters 	1
scalar Network700.node340 	number_of_resources 	38500
scalar Network700.node340 	time_period 	9
scalar Network700.node340 	number_of_messages 	24
scalar Network700.node340 	discovery_latency 	168.00000000001
scalar Network700.node340 	number_of_desired_resources 	20
scalar Network700.node340 	query_homogenity_rate 	33.333333333333
scalar Network700.node340 	qrecord_time 	74280.298307219
scalar Network700.node340 	discovery_resolution_rate 	100
scalar Network700.node340 	rate_of_requesters 	1
scalar Network700.node340 	number_of_resources 	38500
scalar Network700.node340 	time_period 	10
scalar Network700.node340 	number_of_messages 	24
scalar Network700.node340 	discovery_latency 	168.00000000001
scalar Network700.node340 	number_of_desired_resources 	20
scalar Network700.node340 	query_homogenity_rate 	33.333333333333
scalar Network700.node340 	qrecord_time 	77786.605529306
scalar Network700.node340 	discovery_resolution_rate 	100
