version 2
run net700-1-20150623-22:15:25-2477
attr as 1
attr configname net700
attr datetime 20150623-22:15:25
attr dnor 20
attr experiment net700
attr inifile omnetpp.ini
attr iterationvars "$rhdrq=3, $dnor=20, $as=1"
attr iterationvars2 "$rhdrq=3, $dnor=20, $as=1, $repetition=1"
attr measurement "$rhdrq=3, $dnor=20, $as=1"
attr network Network700
attr processid 2477
attr repetition 1
attr replication #1
attr resultdir results
attr rhdrq 3
attr runnumber 1
attr seedset 1

scalar . 	as 	1
scalar . 	dnor 	20
scalar . 	rhdrq 	3
scalar Network700.node600 	rate_of_requesters 	1
scalar Network700.node600 	number_of_resources 	38500
scalar Network700.node600 	time_period 	1
scalar Network700.node600 	number_of_messages 	21
scalar Network700.node600 	discovery_latency 	3924
scalar Network700.node600 	number_of_desired_resources 	20
scalar Network700.node600 	query_homogenity_rate 	33.333333333333
scalar Network700.node600 	qrecord_time 	8608
scalar Network700.node600 	discovery_resolution_rate 	66.666666666667
scalar Network700.node440 	rate_of_requesters 	1
scalar Network700.node440 	number_of_resources 	38500
scalar Network700.node440 	time_period 	1
scalar Network700.node440 	number_of_messages 	22
scalar Network700.node440 	discovery_latency 	3864
scalar Network700.node440 	number_of_desired_resources 	20
scalar Network700.node440 	query_homogenity_rate 	33.333333333333
scalar Network700.node440 	qrecord_time 	8656
scalar Network700.node440 	discovery_resolution_rate 	66.666666666667
scalar Network700.node430 	rate_of_requesters 	1
scalar Network700.node430 	number_of_resources 	38500
scalar Network700.node430 	time_period 	1
scalar Network700.node430 	number_of_messages 	8
scalar Network700.node430 	discovery_latency 	3936
scalar Network700.node430 	number_of_desired_resources 	20
scalar Network700.node430 	query_homogenity_rate 	33.333333333333
scalar Network700.node430 	qrecord_time 	8656
scalar Network700.node430 	discovery_resolution_rate 	66.666666666667
scalar Network700.node240 	rate_of_requesters 	1
scalar Network700.node240 	number_of_resources 	38500
scalar Network700.node240 	time_period 	1
scalar Network700.node240 	number_of_messages 	9
scalar Network700.node240 	discovery_latency 	4200
scalar Network700.node240 	number_of_desired_resources 	20
scalar Network700.node240 	query_homogenity_rate 	33.333333333333
scalar Network700.node240 	qrecord_time 	8884
scalar Network700.node240 	discovery_resolution_rate 	33.333333333333
scalar Network700.node270 	rate_of_requesters 	1
scalar Network700.node270 	number_of_resources 	38500
scalar Network700.node270 	time_period 	1
scalar Network700.node270 	number_of_messages 	16
scalar Network700.node270 	discovery_latency 	4296
scalar Network700.node270 	number_of_desired_resources 	20
scalar Network700.node270 	query_homogenity_rate 	33.333333333333
scalar Network700.node270 	qrecord_time 	9016
scalar Network700.node270 	discovery_resolution_rate 	33.333333333333
scalar Network700.node580 	rate_of_requesters 	1
scalar Network700.node580 	number_of_resources 	38500
scalar Network700.node580 	time_period 	1
scalar Network700.node580 	number_of_messages 	11
scalar Network700.node580 	discovery_latency 	4320
scalar Network700.node580 	number_of_desired_resources 	20
scalar Network700.node580 	query_homogenity_rate 	33.333333333333
scalar Network700.node580 	qrecord_time 	9034
scalar Network700.node580 	discovery_resolution_rate 	33.333333333333
scalar Network700.node0 	rate_of_requesters 	1
scalar Network700.node0 	number_of_resources 	38500
scalar Network700.node0 	time_period 	1
scalar Network700.node0 	number_of_messages 	11
scalar Network700.node0 	discovery_latency 	4332
scalar Network700.node0 	number_of_desired_resources 	20
scalar Network700.node0 	query_homogenity_rate 	33.333333333333
scalar Network700.node0 	qrecord_time 	9058
scalar Network700.node0 	discovery_resolution_rate 	33.333333333333
scalar Network700.node690 	rate_of_requesters 	1
scalar Network700.node690 	number_of_resources 	38500
scalar Network700.node690 	time_period 	1
scalar Network700.node690 	number_of_messages 	6
scalar Network700.node690 	discovery_latency 	4332
scalar Network700.node690 	number_of_desired_resources 	20
scalar Network700.node690 	query_homogenity_rate 	33.333333333333
scalar Network700.node690 	qrecord_time 	9064
scalar Network700.node690 	discovery_resolution_rate 	33.333333333333
scalar Network700.node180 	rate_of_requesters 	1
scalar Network700.node180 	number_of_resources 	38500
scalar Network700.node180 	time_period 	1
scalar Network700.node180 	number_of_messages 	13
scalar Network700.node180 	discovery_latency 	4392
scalar Network700.node180 	number_of_desired_resources 	20
scalar Network700.node180 	query_homogenity_rate 	33.333333333333
scalar Network700.node180 	qrecord_time 	9082
scalar Network700.node180 	discovery_resolution_rate 	33.333333333333
scalar Network700.node550 	rate_of_requesters 	1
scalar Network700.node550 	number_of_resources 	38500
scalar Network700.node550 	time_period 	1
scalar Network700.node550 	number_of_messages 	7
scalar Network700.node550 	discovery_latency 	4350
scalar Network700.node550 	number_of_desired_resources 	20
scalar Network700.node550 	query_homogenity_rate 	33.333333333333
scalar Network700.node550 	qrecord_time 	9094
scalar Network700.node550 	discovery_resolution_rate 	33.333333333333
scalar Network700.node560 	rate_of_requesters 	1
scalar Network700.node560 	number_of_resources 	38500
scalar Network700.node560 	time_period 	1
scalar Network700.node560 	number_of_messages 	8
scalar Network700.node560 	discovery_latency 	4356
scalar Network700.node560 	number_of_desired_resources 	20
scalar Network700.node560 	query_homogenity_rate 	33.333333333333
scalar Network700.node560 	qrecord_time 	9106
scalar Network700.node560 	discovery_resolution_rate 	33.333333333333
scalar Network700.node520 	rate_of_requesters 	1
scalar Network700.node520 	number_of_resources 	38500
scalar Network700.node520 	time_period 	1
scalar Network700.node520 	number_of_messages 	202
scalar Network700.node520 	discovery_latency 	4386
scalar Network700.node520 	number_of_desired_resources 	20
scalar Network700.node520 	query_homogenity_rate 	33.333333333333
scalar Network700.node520 	qrecord_time 	9112
scalar Network700.node520 	discovery_resolution_rate 	16.666666666667
scalar Network700.node220 	rate_of_requesters 	1
scalar Network700.node220 	number_of_resources 	38500
scalar Network700.node220 	time_period 	1
scalar Network700.node220 	number_of_messages 	12
scalar Network700.node220 	discovery_latency 	4404
scalar Network700.node220 	number_of_desired_resources 	20
scalar Network700.node220 	query_homogenity_rate 	33.333333333333
scalar Network700.node220 	qrecord_time 	9118
scalar Network700.node220 	discovery_resolution_rate 	33.333333333333
scalar Network700.node90 	rate_of_requesters 	1
scalar Network700.node90 	number_of_resources 	38500
scalar Network700.node90 	time_period 	1
scalar Network700.node90 	number_of_messages 	15
scalar Network700.node90 	discovery_latency 	4452
scalar Network700.node90 	number_of_desired_resources 	20
scalar Network700.node90 	query_homogenity_rate 	33.333333333333
scalar Network700.node90 	qrecord_time 	9118
scalar Network700.node90 	discovery_resolution_rate 	33.333333333333
scalar Network700.node400 	rate_of_requesters 	1
scalar Network700.node400 	number_of_resources 	38500
scalar Network700.node400 	time_period 	1
scalar Network700.node400 	number_of_messages 	7
scalar Network700.node400 	discovery_latency 	4452
scalar Network700.node400 	number_of_desired_resources 	20
scalar Network700.node400 	query_homogenity_rate 	33.333333333333
scalar Network700.node400 	qrecord_time 	9118
scalar Network700.node400 	discovery_resolution_rate 	33.333333333333
scalar Network700.node330 	rate_of_requesters 	1
scalar Network700.node330 	number_of_resources 	38500
scalar Network700.node330 	time_period 	1
scalar Network700.node330 	number_of_messages 	15
scalar Network700.node330 	discovery_latency 	4434
scalar Network700.node330 	number_of_desired_resources 	20
scalar Network700.node330 	query_homogenity_rate 	33.333333333333
scalar Network700.node330 	qrecord_time 	9124
scalar Network700.node330 	discovery_resolution_rate 	33.333333333333
scalar Network700.node250 	rate_of_requesters 	1
scalar Network700.node250 	number_of_resources 	38500
scalar Network700.node250 	time_period 	1
scalar Network700.node250 	number_of_messages 	5
scalar Network700.node250 	discovery_latency 	4416
scalar Network700.node250 	number_of_desired_resources 	20
scalar Network700.node250 	query_homogenity_rate 	33.333333333333
scalar Network700.node250 	qrecord_time 	9130
scalar Network700.node250 	discovery_resolution_rate 	33.333333333333
scalar Network700.node630 	rate_of_requesters 	1
scalar Network700.node630 	number_of_resources 	38500
scalar Network700.node630 	time_period 	1
scalar Network700.node630 	number_of_messages 	2
scalar Network700.node630 	discovery_latency 	4422
scalar Network700.node630 	number_of_desired_resources 	20
scalar Network700.node630 	query_homogenity_rate 	33.333333333333
scalar Network700.node630 	qrecord_time 	9130
scalar Network700.node630 	discovery_resolution_rate 	0
scalar Network700.node120 	rate_of_requesters 	1
scalar Network700.node120 	number_of_resources 	38500
scalar Network700.node120 	time_period 	1
scalar Network700.node120 	number_of_messages 	14
scalar Network700.node120 	discovery_latency 	4476
scalar Network700.node120 	number_of_desired_resources 	20
scalar Network700.node120 	query_homogenity_rate 	33.333333333333
scalar Network700.node120 	qrecord_time 	9142
scalar Network700.node120 	discovery_resolution_rate 	33.333333333333
scalar Network700.node40 	rate_of_requesters 	1
scalar Network700.node40 	number_of_resources 	38500
scalar Network700.node40 	time_period 	1
scalar Network700.node40 	number_of_messages 	2
scalar Network700.node40 	discovery_latency 	4428
scalar Network700.node40 	number_of_desired_resources 	20
scalar Network700.node40 	query_homogenity_rate 	33.333333333333
scalar Network700.node40 	qrecord_time 	9160
scalar Network700.node40 	discovery_resolution_rate 	0
scalar Network700.node200 	rate_of_requesters 	1
scalar Network700.node200 	number_of_resources 	38500
scalar Network700.node200 	time_period 	1
scalar Network700.node200 	number_of_messages 	201
scalar Network700.node200 	discovery_latency 	4458
scalar Network700.node200 	number_of_desired_resources 	20
scalar Network700.node200 	query_homogenity_rate 	33.333333333333
scalar Network700.node200 	qrecord_time 	9166
scalar Network700.node200 	discovery_resolution_rate 	16.666666666667
scalar Network700.node260 	rate_of_requesters 	1
scalar Network700.node260 	number_of_resources 	38500
scalar Network700.node260 	time_period 	1
scalar Network700.node260 	number_of_messages 	2
scalar Network700.node260 	discovery_latency 	4422
scalar Network700.node260 	number_of_desired_resources 	20
scalar Network700.node260 	query_homogenity_rate 	33.333333333333
scalar Network700.node260 	qrecord_time 	9172
scalar Network700.node260 	discovery_resolution_rate 	0
scalar Network700.node140 	rate_of_requesters 	1
scalar Network700.node140 	number_of_resources 	38500
scalar Network700.node140 	time_period 	1
scalar Network700.node140 	number_of_messages 	6
scalar Network700.node140 	discovery_latency 	4428
scalar Network700.node140 	number_of_desired_resources 	20
scalar Network700.node140 	query_homogenity_rate 	33.333333333333
scalar Network700.node140 	qrecord_time 	9178
scalar Network700.node140 	discovery_resolution_rate 	33.333333333333
scalar Network700.node60 	rate_of_requesters 	1
scalar Network700.node60 	number_of_resources 	38500
scalar Network700.node60 	time_period 	1
scalar Network700.node60 	number_of_messages 	2
scalar Network700.node60 	discovery_latency 	4512
scalar Network700.node60 	number_of_desired_resources 	20
scalar Network700.node60 	query_homogenity_rate 	33.333333333333
scalar Network700.node60 	qrecord_time 	9178
scalar Network700.node60 	discovery_resolution_rate 	0
scalar Network700.node80 	rate_of_requesters 	1
scalar Network700.node80 	number_of_resources 	38500
scalar Network700.node80 	time_period 	1
scalar Network700.node80 	number_of_messages 	7
scalar Network700.node80 	discovery_latency 	4470
scalar Network700.node80 	number_of_desired_resources 	20
scalar Network700.node80 	query_homogenity_rate 	33.333333333333
scalar Network700.node80 	qrecord_time 	9184
scalar Network700.node80 	discovery_resolution_rate 	33.333333333333
scalar Network700.node190 	rate_of_requesters 	1
scalar Network700.node190 	number_of_resources 	38500
scalar Network700.node190 	time_period 	1
scalar Network700.node190 	number_of_messages 	2
scalar Network700.node190 	discovery_latency 	4458
scalar Network700.node190 	number_of_desired_resources 	20
scalar Network700.node190 	query_homogenity_rate 	33.333333333333
scalar Network700.node190 	qrecord_time 	9184
scalar Network700.node190 	discovery_resolution_rate 	0
scalar Network700.node620 	rate_of_requesters 	1
scalar Network700.node620 	number_of_resources 	38500
scalar Network700.node620 	time_period 	1
scalar Network700.node620 	number_of_messages 	2
scalar Network700.node620 	discovery_latency 	4482
scalar Network700.node620 	number_of_desired_resources 	20
scalar Network700.node620 	query_homogenity_rate 	33.333333333333
scalar Network700.node620 	qrecord_time 	9190
scalar Network700.node620 	discovery_resolution_rate 	0
scalar Network700.node490 	rate_of_requesters 	1
scalar Network700.node490 	number_of_resources 	38500
scalar Network700.node490 	time_period 	1
scalar Network700.node490 	number_of_messages 	11
scalar Network700.node490 	discovery_latency 	4488
scalar Network700.node490 	number_of_desired_resources 	20
scalar Network700.node490 	query_homogenity_rate 	33.333333333333
scalar Network700.node490 	qrecord_time 	9196
scalar Network700.node490 	discovery_resolution_rate 	33.333333333333
scalar Network700.node610 	rate_of_requesters 	1
scalar Network700.node610 	number_of_resources 	38500
scalar Network700.node610 	time_period 	1
scalar Network700.node610 	number_of_messages 	22
scalar Network700.node610 	discovery_latency 	4512
scalar Network700.node610 	number_of_desired_resources 	20
scalar Network700.node610 	query_homogenity_rate 	33.333333333333
scalar Network700.node610 	qrecord_time 	9202
scalar Network700.node610 	discovery_resolution_rate 	33.333333333333
scalar Network700.node420 	rate_of_requesters 	1
scalar Network700.node420 	number_of_resources 	38500
scalar Network700.node420 	time_period 	1
scalar Network700.node420 	number_of_messages 	5
scalar Network700.node420 	discovery_latency 	4464
scalar Network700.node420 	number_of_desired_resources 	20
scalar Network700.node420 	query_homogenity_rate 	33.333333333333
scalar Network700.node420 	qrecord_time 	9202
scalar Network700.node420 	discovery_resolution_rate 	33.333333333333
scalar Network700.node320 	rate_of_requesters 	1
scalar Network700.node320 	number_of_resources 	38500
scalar Network700.node320 	time_period 	1
scalar Network700.node320 	number_of_messages 	7
scalar Network700.node320 	discovery_latency 	4506
scalar Network700.node320 	number_of_desired_resources 	20
scalar Network700.node320 	query_homogenity_rate 	33.333333333333
scalar Network700.node320 	qrecord_time 	9214
scalar Network700.node320 	discovery_resolution_rate 	33.333333333333
scalar Network700.node20 	rate_of_requesters 	1
scalar Network700.node20 	number_of_resources 	38500
scalar Network700.node20 	time_period 	1
scalar Network700.node20 	number_of_messages 	18
scalar Network700.node20 	discovery_latency 	4524
scalar Network700.node20 	number_of_desired_resources 	20
scalar Network700.node20 	query_homogenity_rate 	33.333333333333
scalar Network700.node20 	qrecord_time 	9214
scalar Network700.node20 	discovery_resolution_rate 	33.333333333333
scalar Network700.node660 	rate_of_requesters 	1
scalar Network700.node660 	number_of_resources 	38500
scalar Network700.node660 	time_period 	1
scalar Network700.node660 	number_of_messages 	2
scalar Network700.node660 	discovery_latency 	4440
scalar Network700.node660 	number_of_desired_resources 	20
scalar Network700.node660 	query_homogenity_rate 	33.333333333333
scalar Network700.node660 	qrecord_time 	9214
scalar Network700.node660 	discovery_resolution_rate 	0
scalar Network700.node80 	rate_of_requesters 	1
scalar Network700.node80 	number_of_resources 	38500
scalar Network700.node80 	time_period 	2
scalar Network700.node80 	number_of_messages 	9
scalar Network700.node80 	discovery_latency 	4476
scalar Network700.node80 	number_of_desired_resources 	20
scalar Network700.node80 	query_homogenity_rate 	33.333333333333
scalar Network700.node80 	qrecord_time 	9220.774479793
scalar Network700.node80 	discovery_resolution_rate 	33.333333333333
scalar Network700.node280 	rate_of_requesters 	1
scalar Network700.node280 	number_of_resources 	38500
scalar Network700.node280 	time_period 	1
scalar Network700.node280 	number_of_messages 	2
scalar Network700.node280 	discovery_latency 	4590
scalar Network700.node280 	number_of_desired_resources 	20
scalar Network700.node280 	query_homogenity_rate 	33.333333333333
scalar Network700.node280 	qrecord_time 	9232
scalar Network700.node280 	discovery_resolution_rate 	0
scalar Network700.node650 	rate_of_requesters 	1
scalar Network700.node650 	number_of_resources 	38500
scalar Network700.node650 	time_period 	1
scalar Network700.node650 	number_of_messages 	19
scalar Network700.node650 	discovery_latency 	4524
scalar Network700.node650 	number_of_desired_resources 	20
scalar Network700.node650 	query_homogenity_rate 	33.333333333333
scalar Network700.node650 	qrecord_time 	9232
scalar Network700.node650 	discovery_resolution_rate 	33.333333333333
scalar Network700.node340 	rate_of_requesters 	1
scalar Network700.node340 	number_of_resources 	38500
scalar Network700.node340 	time_period 	1
scalar Network700.node340 	number_of_messages 	2
scalar Network700.node340 	discovery_latency 	4494
scalar Network700.node340 	number_of_desired_resources 	20
scalar Network700.node340 	query_homogenity_rate 	33.333333333333
scalar Network700.node340 	qrecord_time 	9244
scalar Network700.node340 	discovery_resolution_rate 	0
scalar Network700.node210 	rate_of_requesters 	1
scalar Network700.node210 	number_of_resources 	38500
scalar Network700.node210 	time_period 	1
scalar Network700.node210 	number_of_messages 	2
scalar Network700.node210 	discovery_latency 	4374
scalar Network700.node210 	number_of_desired_resources 	20
scalar Network700.node210 	query_homogenity_rate 	33.333333333333
scalar Network700.node210 	qrecord_time 	9250
scalar Network700.node210 	discovery_resolution_rate 	0
scalar Network700.node480 	rate_of_requesters 	1
scalar Network700.node480 	number_of_resources 	38500
scalar Network700.node480 	time_period 	1
scalar Network700.node480 	number_of_messages 	2
scalar Network700.node480 	discovery_latency 	4542
scalar Network700.node480 	number_of_desired_resources 	20
scalar Network700.node480 	query_homogenity_rate 	33.333333333333
scalar Network700.node480 	qrecord_time 	9250
scalar Network700.node480 	discovery_resolution_rate 	0
scalar Network700.node350 	rate_of_requesters 	1
scalar Network700.node350 	number_of_resources 	38500
scalar Network700.node350 	time_period 	1
scalar Network700.node350 	number_of_messages 	0
scalar Network700.node350 	discovery_latency 	4506
scalar Network700.node350 	number_of_desired_resources 	20
scalar Network700.node350 	query_homogenity_rate 	33.333333333333
scalar Network700.node350 	qrecord_time 	9250
scalar Network700.node350 	discovery_resolution_rate 	0
scalar Network700.node290 	rate_of_requesters 	1
scalar Network700.node290 	number_of_resources 	38500
scalar Network700.node290 	time_period 	1
scalar Network700.node290 	number_of_messages 	2
scalar Network700.node290 	discovery_latency 	4590
scalar Network700.node290 	number_of_desired_resources 	20
scalar Network700.node290 	query_homogenity_rate 	33.333333333333
scalar Network700.node290 	qrecord_time 	9256
scalar Network700.node290 	discovery_resolution_rate 	0
scalar Network700.node470 	rate_of_requesters 	1
scalar Network700.node470 	number_of_resources 	38500
scalar Network700.node470 	time_period 	2
scalar Network700.node470 	number_of_messages 	2
scalar Network700.node470 	discovery_latency 	4470
scalar Network700.node470 	number_of_desired_resources 	20
scalar Network700.node470 	query_homogenity_rate 	33.333333333333
scalar Network700.node470 	qrecord_time 	9258.687507786
scalar Network700.node470 	discovery_resolution_rate 	0
scalar Network700.node100 	rate_of_requesters 	1
scalar Network700.node100 	number_of_resources 	38500
scalar Network700.node100 	time_period 	1
scalar Network700.node100 	number_of_messages 	2
scalar Network700.node100 	discovery_latency 	4506
scalar Network700.node100 	number_of_desired_resources 	20
scalar Network700.node100 	query_homogenity_rate 	33.333333333333
scalar Network700.node100 	qrecord_time 	9262
scalar Network700.node100 	discovery_resolution_rate 	0
scalar Network700.node640 	rate_of_requesters 	1
scalar Network700.node640 	number_of_resources 	38500
scalar Network700.node640 	time_period 	1
scalar Network700.node640 	number_of_messages 	2
scalar Network700.node640 	discovery_latency 	4530
scalar Network700.node640 	number_of_desired_resources 	20
scalar Network700.node640 	query_homogenity_rate 	33.333333333333
scalar Network700.node640 	qrecord_time 	9268
scalar Network700.node640 	discovery_resolution_rate 	0
scalar Network700.node10 	rate_of_requesters 	1
scalar Network700.node10 	number_of_resources 	38500
scalar Network700.node10 	time_period 	1
scalar Network700.node10 	number_of_messages 	202
scalar Network700.node10 	discovery_latency 	4476
scalar Network700.node10 	number_of_desired_resources 	20
scalar Network700.node10 	query_homogenity_rate 	33.333333333333
scalar Network700.node10 	qrecord_time 	9268
scalar Network700.node10 	discovery_resolution_rate 	16.666666666667
scalar Network700.node410 	rate_of_requesters 	1
scalar Network700.node410 	number_of_resources 	38500
scalar Network700.node410 	time_period 	1
scalar Network700.node410 	number_of_messages 	2
scalar Network700.node410 	discovery_latency 	4506
scalar Network700.node410 	number_of_desired_resources 	20
scalar Network700.node410 	query_homogenity_rate 	33.333333333333
scalar Network700.node410 	qrecord_time 	9274
scalar Network700.node410 	discovery_resolution_rate 	0
scalar Network700.node370 	rate_of_requesters 	1
scalar Network700.node370 	number_of_resources 	38500
scalar Network700.node370 	time_period 	1
scalar Network700.node370 	number_of_messages 	2
scalar Network700.node370 	discovery_latency 	4446
scalar Network700.node370 	number_of_desired_resources 	20
scalar Network700.node370 	query_homogenity_rate 	33.333333333333
scalar Network700.node370 	qrecord_time 	9274
scalar Network700.node370 	discovery_resolution_rate 	0
scalar Network700.node670 	rate_of_requesters 	1
scalar Network700.node670 	number_of_resources 	38500
scalar Network700.node670 	time_period 	1
scalar Network700.node670 	number_of_messages 	201
scalar Network700.node670 	discovery_latency 	4566
scalar Network700.node670 	number_of_desired_resources 	20
scalar Network700.node670 	query_homogenity_rate 	33.333333333333
scalar Network700.node670 	qrecord_time 	9274
scalar Network700.node670 	discovery_resolution_rate 	16.666666666667
scalar Network700.node50 	rate_of_requesters 	1
scalar Network700.node50 	number_of_resources 	38500
scalar Network700.node50 	time_period 	1
scalar Network700.node50 	number_of_messages 	2
scalar Network700.node50 	discovery_latency 	4542
scalar Network700.node50 	number_of_desired_resources 	20
scalar Network700.node50 	query_homogenity_rate 	33.333333333333
scalar Network700.node50 	qrecord_time 	9280
scalar Network700.node50 	discovery_resolution_rate 	0
scalar Network700.node510 	rate_of_requesters 	1
scalar Network700.node510 	number_of_resources 	38500
scalar Network700.node510 	time_period 	1
scalar Network700.node510 	number_of_messages 	8
scalar Network700.node510 	discovery_latency 	4488
scalar Network700.node510 	number_of_desired_resources 	20
scalar Network700.node510 	query_homogenity_rate 	33.333333333333
scalar Network700.node510 	qrecord_time 	9286
scalar Network700.node510 	discovery_resolution_rate 	33.333333333333
scalar Network700.node500 	rate_of_requesters 	1
scalar Network700.node500 	number_of_resources 	38500
scalar Network700.node500 	time_period 	1
scalar Network700.node500 	number_of_messages 	2
scalar Network700.node500 	discovery_latency 	4542
scalar Network700.node500 	number_of_desired_resources 	20
scalar Network700.node500 	query_homogenity_rate 	33.333333333333
scalar Network700.node500 	qrecord_time 	9298
scalar Network700.node500 	discovery_resolution_rate 	0
scalar Network700.node380 	rate_of_requesters 	1
scalar Network700.node380 	number_of_resources 	38500
scalar Network700.node380 	time_period 	1
scalar Network700.node380 	number_of_messages 	2
scalar Network700.node380 	discovery_latency 	4566
scalar Network700.node380 	number_of_desired_resources 	20
scalar Network700.node380 	query_homogenity_rate 	33.333333333333
scalar Network700.node380 	qrecord_time 	9304
scalar Network700.node380 	discovery_resolution_rate 	0
scalar Network700.node540 	rate_of_requesters 	1
scalar Network700.node540 	number_of_resources 	38500
scalar Network700.node540 	time_period 	1
scalar Network700.node540 	number_of_messages 	2
scalar Network700.node540 	discovery_latency 	4614
scalar Network700.node540 	number_of_desired_resources 	20
scalar Network700.node540 	query_homogenity_rate 	33.333333333333
scalar Network700.node540 	qrecord_time 	9304
scalar Network700.node540 	discovery_resolution_rate 	0
scalar Network700.node150 	rate_of_requesters 	1
scalar Network700.node150 	number_of_resources 	38500
scalar Network700.node150 	time_period 	1
scalar Network700.node150 	number_of_messages 	2
scalar Network700.node150 	discovery_latency 	4542
scalar Network700.node150 	number_of_desired_resources 	20
scalar Network700.node150 	query_homogenity_rate 	33.333333333333
scalar Network700.node150 	qrecord_time 	9310
scalar Network700.node150 	discovery_resolution_rate 	0
scalar Network700.node360 	rate_of_requesters 	1
scalar Network700.node360 	number_of_resources 	38500
scalar Network700.node360 	time_period 	1
scalar Network700.node360 	number_of_messages 	5
scalar Network700.node360 	discovery_latency 	4584
scalar Network700.node360 	number_of_desired_resources 	20
scalar Network700.node360 	query_homogenity_rate 	33.333333333333
scalar Network700.node360 	qrecord_time 	9322
scalar Network700.node360 	discovery_resolution_rate 	33.333333333333
scalar Network700.node220 	rate_of_requesters 	1
scalar Network700.node220 	number_of_resources 	38500
scalar Network700.node220 	time_period 	2
scalar Network700.node220 	number_of_messages 	7
scalar Network700.node220 	discovery_latency 	4476
scalar Network700.node220 	number_of_desired_resources 	20
scalar Network700.node220 	query_homogenity_rate 	33.333333333333
scalar Network700.node220 	qrecord_time 	9322.515886656
scalar Network700.node220 	discovery_resolution_rate 	33.333333333333
scalar Network700.node130 	rate_of_requesters 	1
scalar Network700.node130 	number_of_resources 	38500
scalar Network700.node130 	time_period 	1
scalar Network700.node130 	number_of_messages 	2
scalar Network700.node130 	discovery_latency 	4602
scalar Network700.node130 	number_of_desired_resources 	20
scalar Network700.node130 	query_homogenity_rate 	33.333333333333
scalar Network700.node130 	qrecord_time 	9334
scalar Network700.node130 	discovery_resolution_rate 	0
scalar Network700.node680 	rate_of_requesters 	1
scalar Network700.node680 	number_of_resources 	38500
scalar Network700.node680 	time_period 	1
scalar Network700.node680 	number_of_messages 	2
scalar Network700.node680 	discovery_latency 	4608
scalar Network700.node680 	number_of_desired_resources 	20
scalar Network700.node680 	query_homogenity_rate 	33.333333333333
scalar Network700.node680 	qrecord_time 	9340
scalar Network700.node680 	discovery_resolution_rate 	0
scalar Network700.node70 	rate_of_requesters 	1
scalar Network700.node70 	number_of_resources 	38500
scalar Network700.node70 	time_period 	1
scalar Network700.node70 	number_of_messages 	5
scalar Network700.node70 	discovery_latency 	4608
scalar Network700.node70 	number_of_desired_resources 	20
scalar Network700.node70 	query_homogenity_rate 	33.333333333333
scalar Network700.node70 	qrecord_time 	9340
scalar Network700.node70 	discovery_resolution_rate 	33.333333333333
scalar Network700.node450 	rate_of_requesters 	1
scalar Network700.node450 	number_of_resources 	38500
scalar Network700.node450 	time_period 	1
scalar Network700.node450 	number_of_messages 	2
scalar Network700.node450 	discovery_latency 	4626
scalar Network700.node450 	number_of_desired_resources 	20
scalar Network700.node450 	query_homogenity_rate 	33.333333333333
scalar Network700.node450 	qrecord_time 	9340
scalar Network700.node450 	discovery_resolution_rate 	0
scalar Network700.node30 	rate_of_requesters 	1
scalar Network700.node30 	number_of_resources 	38500
scalar Network700.node30 	time_period 	1
scalar Network700.node30 	number_of_messages 	9
scalar Network700.node30 	discovery_latency 	4614
scalar Network700.node30 	number_of_desired_resources 	20
scalar Network700.node30 	query_homogenity_rate 	33.333333333333
scalar Network700.node30 	qrecord_time 	9346
scalar Network700.node30 	discovery_resolution_rate 	33.333333333333
scalar Network700.node460 	rate_of_requesters 	1
scalar Network700.node460 	number_of_resources 	38500
scalar Network700.node460 	time_period 	1
scalar Network700.node460 	number_of_messages 	0
scalar Network700.node460 	discovery_latency 	4650
scalar Network700.node460 	number_of_desired_resources 	20
scalar Network700.node460 	query_homogenity_rate 	33.333333333333
scalar Network700.node460 	qrecord_time 	9346
scalar Network700.node460 	discovery_resolution_rate 	0
scalar Network700.node300 	rate_of_requesters 	1
scalar Network700.node300 	number_of_resources 	38500
scalar Network700.node300 	time_period 	1
scalar Network700.node300 	number_of_messages 	9
scalar Network700.node300 	discovery_latency 	4602
scalar Network700.node300 	number_of_desired_resources 	20
scalar Network700.node300 	query_homogenity_rate 	33.333333333333
scalar Network700.node300 	qrecord_time 	9352
scalar Network700.node300 	discovery_resolution_rate 	33.333333333333
scalar Network700.node110 	rate_of_requesters 	1
scalar Network700.node110 	number_of_resources 	38500
scalar Network700.node110 	time_period 	1
scalar Network700.node110 	number_of_messages 	0
scalar Network700.node110 	discovery_latency 	4536
scalar Network700.node110 	number_of_desired_resources 	20
scalar Network700.node110 	query_homogenity_rate 	33.333333333333
scalar Network700.node110 	qrecord_time 	9352
scalar Network700.node110 	discovery_resolution_rate 	0
scalar Network700.node470 	rate_of_requesters 	1
scalar Network700.node470 	number_of_resources 	38500
scalar Network700.node470 	time_period 	1
scalar Network700.node470 	number_of_messages 	2
scalar Network700.node470 	discovery_latency 	4602
scalar Network700.node470 	number_of_desired_resources 	20
scalar Network700.node470 	query_homogenity_rate 	33.333333333333
scalar Network700.node470 	qrecord_time 	9358
scalar Network700.node470 	discovery_resolution_rate 	0
scalar Network700.node670 	rate_of_requesters 	1
scalar Network700.node670 	number_of_resources 	38500
scalar Network700.node670 	time_period 	2
scalar Network700.node670 	number_of_messages 	2
scalar Network700.node670 	discovery_latency 	4638
scalar Network700.node670 	number_of_desired_resources 	20
scalar Network700.node670 	query_homogenity_rate 	33.333333333333
scalar Network700.node670 	qrecord_time 	9358.215642133
scalar Network700.node670 	discovery_resolution_rate 	0
scalar Network700.node570 	rate_of_requesters 	1
scalar Network700.node570 	number_of_resources 	38500
scalar Network700.node570 	time_period 	1
scalar Network700.node570 	number_of_messages 	2
scalar Network700.node570 	discovery_latency 	4638
scalar Network700.node570 	number_of_desired_resources 	20
scalar Network700.node570 	query_homogenity_rate 	33.333333333333
scalar Network700.node570 	qrecord_time 	9364
scalar Network700.node570 	discovery_resolution_rate 	0
scalar Network700.node590 	rate_of_requesters 	1
scalar Network700.node590 	number_of_resources 	38500
scalar Network700.node590 	time_period 	1
scalar Network700.node590 	number_of_messages 	2
scalar Network700.node590 	discovery_latency 	4602
scalar Network700.node590 	number_of_desired_resources 	20
scalar Network700.node590 	query_homogenity_rate 	33.333333333333
scalar Network700.node590 	qrecord_time 	9370
scalar Network700.node590 	discovery_resolution_rate 	0
scalar Network700.node170 	rate_of_requesters 	1
scalar Network700.node170 	number_of_resources 	38500
scalar Network700.node170 	time_period 	1
scalar Network700.node170 	number_of_messages 	2
scalar Network700.node170 	discovery_latency 	4698
scalar Network700.node170 	number_of_desired_resources 	20
scalar Network700.node170 	query_homogenity_rate 	33.333333333333
scalar Network700.node170 	qrecord_time 	9382
scalar Network700.node170 	discovery_resolution_rate 	0
scalar Network700.node310 	rate_of_requesters 	1
scalar Network700.node310 	number_of_resources 	38500
scalar Network700.node310 	time_period 	1
scalar Network700.node310 	number_of_messages 	13
scalar Network700.node310 	discovery_latency 	4536
scalar Network700.node310 	number_of_desired_resources 	20
scalar Network700.node310 	query_homogenity_rate 	33.333333333333
scalar Network700.node310 	qrecord_time 	9388
scalar Network700.node310 	discovery_resolution_rate 	33.333333333333
scalar Network700.node160 	rate_of_requesters 	1
scalar Network700.node160 	number_of_resources 	38500
scalar Network700.node160 	time_period 	1
scalar Network700.node160 	number_of_messages 	2
scalar Network700.node160 	discovery_latency 	4626
scalar Network700.node160 	number_of_desired_resources 	20
scalar Network700.node160 	query_homogenity_rate 	33.333333333333
scalar Network700.node160 	qrecord_time 	9418
scalar Network700.node160 	discovery_resolution_rate 	0
scalar Network700.node530 	rate_of_requesters 	1
scalar Network700.node530 	number_of_resources 	38500
scalar Network700.node530 	time_period 	1
scalar Network700.node530 	number_of_messages 	2
scalar Network700.node530 	discovery_latency 	4662
scalar Network700.node530 	number_of_desired_resources 	20
scalar Network700.node530 	query_homogenity_rate 	33.333333333333
scalar Network700.node530 	qrecord_time 	9454
scalar Network700.node530 	discovery_resolution_rate 	0
scalar Network700.node390 	rate_of_requesters 	1
scalar Network700.node390 	number_of_resources 	38500
scalar Network700.node390 	time_period 	1
scalar Network700.node390 	number_of_messages 	2
scalar Network700.node390 	discovery_latency 	4650
scalar Network700.node390 	number_of_desired_resources 	20
scalar Network700.node390 	query_homogenity_rate 	33.333333333333
scalar Network700.node390 	qrecord_time 	9454
scalar Network700.node390 	discovery_resolution_rate 	0
scalar Network700.node390 	rate_of_requesters 	1
scalar Network700.node390 	number_of_resources 	38500
scalar Network700.node390 	time_period 	2
scalar Network700.node390 	number_of_messages 	2
scalar Network700.node390 	discovery_latency 	4506
scalar Network700.node390 	number_of_desired_resources 	20
scalar Network700.node390 	query_homogenity_rate 	33.333333333333
scalar Network700.node390 	qrecord_time 	9462.629138643
scalar Network700.node390 	discovery_resolution_rate 	0
scalar Network700.node230 	rate_of_requesters 	1
scalar Network700.node230 	number_of_resources 	38500
scalar Network700.node230 	time_period 	1
scalar Network700.node230 	number_of_messages 	2
scalar Network700.node230 	discovery_latency 	4698
scalar Network700.node230 	number_of_desired_resources 	20
scalar Network700.node230 	query_homogenity_rate 	33.333333333333
scalar Network700.node230 	qrecord_time 	9490
scalar Network700.node230 	discovery_resolution_rate 	0
scalar Network700.node480 	rate_of_requesters 	1
scalar Network700.node480 	number_of_resources 	38500
scalar Network700.node480 	time_period 	2
scalar Network700.node480 	number_of_messages 	2
scalar Network700.node480 	discovery_latency 	4506
scalar Network700.node480 	number_of_desired_resources 	20
scalar Network700.node480 	query_homogenity_rate 	33.333333333333
scalar Network700.node480 	qrecord_time 	9544.775704852
scalar Network700.node480 	discovery_resolution_rate 	0
scalar Network700.node510 	rate_of_requesters 	1
scalar Network700.node510 	number_of_resources 	38500
scalar Network700.node510 	time_period 	2
scalar Network700.node510 	number_of_messages 	2
scalar Network700.node510 	discovery_latency 	4470
scalar Network700.node510 	number_of_desired_resources 	20
scalar Network700.node510 	query_homogenity_rate 	33.333333333333
scalar Network700.node510 	qrecord_time 	9547.455179581
scalar Network700.node510 	discovery_resolution_rate 	0
scalar Network700.node150 	rate_of_requesters 	1
scalar Network700.node150 	number_of_resources 	38500
scalar Network700.node150 	time_period 	2
scalar Network700.node150 	number_of_messages 	2
scalar Network700.node150 	discovery_latency 	4530
scalar Network700.node150 	number_of_desired_resources 	20
scalar Network700.node150 	query_homogenity_rate 	33.333333333333
scalar Network700.node150 	qrecord_time 	9691.827842769
scalar Network700.node150 	discovery_resolution_rate 	0
scalar Network700.node50 	rate_of_requesters 	1
scalar Network700.node50 	number_of_resources 	38500
scalar Network700.node50 	time_period 	2
scalar Network700.node50 	number_of_messages 	2
scalar Network700.node50 	discovery_latency 	4506
scalar Network700.node50 	number_of_desired_resources 	20
scalar Network700.node50 	query_homogenity_rate 	33.333333333333
scalar Network700.node50 	qrecord_time 	9768.048573081
scalar Network700.node50 	discovery_resolution_rate 	0
scalar Network700.node210 	rate_of_requesters 	1
scalar Network700.node210 	number_of_resources 	38500
scalar Network700.node210 	time_period 	2
scalar Network700.node210 	number_of_messages 	2
scalar Network700.node210 	discovery_latency 	4482
scalar Network700.node210 	number_of_desired_resources 	20
scalar Network700.node210 	query_homogenity_rate 	33.333333333333
scalar Network700.node210 	qrecord_time 	9800.574919578
scalar Network700.node210 	discovery_resolution_rate 	0
scalar Network700.node530 	rate_of_requesters 	1
scalar Network700.node530 	number_of_resources 	38500
scalar Network700.node530 	time_period 	2
scalar Network700.node530 	number_of_messages 	2
scalar Network700.node530 	discovery_latency 	4464
scalar Network700.node530 	number_of_desired_resources 	20
scalar Network700.node530 	query_homogenity_rate 	33.333333333333
scalar Network700.node530 	qrecord_time 	9997.885257675
scalar Network700.node530 	discovery_resolution_rate 	0
scalar Network700.node130 	rate_of_requesters 	1
scalar Network700.node130 	number_of_resources 	38500
scalar Network700.node130 	time_period 	2
scalar Network700.node130 	number_of_messages 	2
scalar Network700.node130 	discovery_latency 	4446
scalar Network700.node130 	number_of_desired_resources 	20
scalar Network700.node130 	query_homogenity_rate 	33.333333333333
scalar Network700.node130 	qrecord_time 	10209.481459796
scalar Network700.node130 	discovery_resolution_rate 	0
scalar Network700.node120 	rate_of_requesters 	1
scalar Network700.node120 	number_of_resources 	38500
scalar Network700.node120 	time_period 	2
scalar Network700.node120 	number_of_messages 	2
scalar Network700.node120 	discovery_latency 	4446
scalar Network700.node120 	number_of_desired_resources 	20
scalar Network700.node120 	query_homogenity_rate 	33.333333333333
scalar Network700.node120 	qrecord_time 	10301.333235091
scalar Network700.node120 	discovery_resolution_rate 	0
scalar Network700.node50 	rate_of_requesters 	1
scalar Network700.node50 	number_of_resources 	38500
scalar Network700.node50 	time_period 	3
scalar Network700.node50 	number_of_messages 	2
scalar Network700.node50 	discovery_latency 	4506
scalar Network700.node50 	number_of_desired_resources 	20
scalar Network700.node50 	query_homogenity_rate 	33.333333333333
scalar Network700.node50 	qrecord_time 	10366.789930187
scalar Network700.node50 	discovery_resolution_rate 	0
scalar Network700.node310 	rate_of_requesters 	1
scalar Network700.node310 	number_of_resources 	38500
scalar Network700.node310 	time_period 	2
scalar Network700.node310 	number_of_messages 	2
scalar Network700.node310 	discovery_latency 	4530
scalar Network700.node310 	number_of_desired_resources 	20
scalar Network700.node310 	query_homogenity_rate 	33.333333333333
scalar Network700.node310 	qrecord_time 	10425.804396079
scalar Network700.node310 	discovery_resolution_rate 	0
scalar Network700.node490 	rate_of_requesters 	1
scalar Network700.node490 	number_of_resources 	38500
scalar Network700.node490 	time_period 	2
scalar Network700.node490 	number_of_messages 	2
scalar Network700.node490 	discovery_latency 	4578
scalar Network700.node490 	number_of_desired_resources 	20
scalar Network700.node490 	query_homogenity_rate 	33.333333333333
scalar Network700.node490 	qrecord_time 	10430.26797148
scalar Network700.node490 	discovery_resolution_rate 	0
scalar Network700.node600 	rate_of_requesters 	1
scalar Network700.node600 	number_of_resources 	38500
scalar Network700.node600 	time_period 	2
scalar Network700.node600 	number_of_messages 	2
scalar Network700.node600 	discovery_latency 	4458
scalar Network700.node600 	number_of_desired_resources 	20
scalar Network700.node600 	query_homogenity_rate 	33.333333333333
scalar Network700.node600 	qrecord_time 	10509.539485325
scalar Network700.node600 	discovery_resolution_rate 	0
scalar Network700.node340 	rate_of_requesters 	1
scalar Network700.node340 	number_of_resources 	38500
scalar Network700.node340 	time_period 	2
scalar Network700.node340 	number_of_messages 	2
scalar Network700.node340 	discovery_latency 	4542
scalar Network700.node340 	number_of_desired_resources 	20
scalar Network700.node340 	query_homogenity_rate 	33.333333333333
scalar Network700.node340 	qrecord_time 	10563.55803932
scalar Network700.node340 	discovery_resolution_rate 	0
scalar Network700.node70 	rate_of_requesters 	1
scalar Network700.node70 	number_of_resources 	38500
scalar Network700.node70 	time_period 	2
scalar Network700.node70 	number_of_messages 	2
scalar Network700.node70 	discovery_latency 	4506
scalar Network700.node70 	number_of_desired_resources 	20
scalar Network700.node70 	query_homogenity_rate 	33.333333333333
scalar Network700.node70 	qrecord_time 	10713.676875581
scalar Network700.node70 	discovery_resolution_rate 	0
scalar Network700.node380 	rate_of_requesters 	1
scalar Network700.node380 	number_of_resources 	38500
scalar Network700.node380 	time_period 	2
scalar Network700.node380 	number_of_messages 	2
scalar Network700.node380 	discovery_latency 	4554
scalar Network700.node380 	number_of_desired_resources 	20
scalar Network700.node380 	query_homogenity_rate 	33.333333333333
scalar Network700.node380 	qrecord_time 	10730.743424405
scalar Network700.node380 	discovery_resolution_rate 	0
scalar Network700.node410 	rate_of_requesters 	1
scalar Network700.node410 	number_of_resources 	38500
scalar Network700.node410 	time_period 	2
scalar Network700.node410 	number_of_messages 	2
scalar Network700.node410 	discovery_latency 	4614
scalar Network700.node410 	number_of_desired_resources 	20
scalar Network700.node410 	query_homogenity_rate 	33.333333333333
scalar Network700.node410 	qrecord_time 	10749.520259301
scalar Network700.node410 	discovery_resolution_rate 	0
scalar Network700.node190 	rate_of_requesters 	1
scalar Network700.node190 	number_of_resources 	38500
scalar Network700.node190 	time_period 	2
scalar Network700.node190 	number_of_messages 	2
scalar Network700.node190 	discovery_latency 	4566
scalar Network700.node190 	number_of_desired_resources 	20
scalar Network700.node190 	query_homogenity_rate 	33.333333333333
scalar Network700.node190 	qrecord_time 	10779.893599114
scalar Network700.node190 	discovery_resolution_rate 	0
scalar Network700.node280 	rate_of_requesters 	1
scalar Network700.node280 	number_of_resources 	38500
scalar Network700.node280 	time_period 	2
scalar Network700.node280 	number_of_messages 	2
scalar Network700.node280 	discovery_latency 	4404
scalar Network700.node280 	number_of_desired_resources 	20
scalar Network700.node280 	query_homogenity_rate 	33.333333333333
scalar Network700.node280 	qrecord_time 	11128.216856531
scalar Network700.node280 	discovery_resolution_rate 	0
scalar Network700.node100 	rate_of_requesters 	1
scalar Network700.node100 	number_of_resources 	38500
scalar Network700.node100 	time_period 	2
scalar Network700.node100 	number_of_messages 	2
scalar Network700.node100 	discovery_latency 	4578
scalar Network700.node100 	number_of_desired_resources 	20
scalar Network700.node100 	query_homogenity_rate 	33.333333333333
scalar Network700.node100 	qrecord_time 	11132.694694971
scalar Network700.node100 	discovery_resolution_rate 	0
scalar Network700.node630 	rate_of_requesters 	1
scalar Network700.node630 	number_of_resources 	38500
scalar Network700.node630 	time_period 	2
scalar Network700.node630 	number_of_messages 	2
scalar Network700.node630 	discovery_latency 	4566
scalar Network700.node630 	number_of_desired_resources 	20
scalar Network700.node630 	query_homogenity_rate 	33.333333333333
scalar Network700.node630 	qrecord_time 	11154.493545727
scalar Network700.node630 	discovery_resolution_rate 	0
scalar Network700.node380 	rate_of_requesters 	1
scalar Network700.node380 	number_of_resources 	38500
scalar Network700.node380 	time_period 	3
scalar Network700.node380 	number_of_messages 	2
scalar Network700.node380 	discovery_latency 	4542
scalar Network700.node380 	number_of_desired_resources 	20
scalar Network700.node380 	query_homogenity_rate 	33.333333333333
scalar Network700.node380 	qrecord_time 	11158.863780523
scalar Network700.node380 	discovery_resolution_rate 	0
scalar Network700.node460 	rate_of_requesters 	1
scalar Network700.node460 	number_of_resources 	38500
scalar Network700.node460 	time_period 	2
scalar Network700.node460 	number_of_messages 	0
scalar Network700.node460 	discovery_latency 	4638
scalar Network700.node460 	number_of_desired_resources 	20
scalar Network700.node460 	query_homogenity_rate 	33.333333333333
scalar Network700.node460 	qrecord_time 	11215.18396341
scalar Network700.node460 	discovery_resolution_rate 	0
scalar Network700.node530 	rate_of_requesters 	1
scalar Network700.node530 	number_of_resources 	38500
scalar Network700.node530 	time_period 	3
scalar Network700.node530 	number_of_messages 	2
scalar Network700.node530 	discovery_latency 	4602
scalar Network700.node530 	number_of_desired_resources 	20
scalar Network700.node530 	query_homogenity_rate 	33.333333333333
scalar Network700.node530 	qrecord_time 	11243.696512883
scalar Network700.node530 	discovery_resolution_rate 	0
scalar Network700.node200 	rate_of_requesters 	1
scalar Network700.node200 	number_of_resources 	38500
scalar Network700.node200 	time_period 	2
scalar Network700.node200 	number_of_messages 	2
scalar Network700.node200 	discovery_latency 	4482
scalar Network700.node200 	number_of_desired_resources 	20
scalar Network700.node200 	query_homogenity_rate 	33.333333333333
scalar Network700.node200 	qrecord_time 	11267.517766819
scalar Network700.node200 	discovery_resolution_rate 	0
scalar Network700.node200 	rate_of_requesters 	1
scalar Network700.node200 	number_of_resources 	38500
scalar Network700.node200 	time_period 	3
scalar Network700.node200 	number_of_messages 	2
scalar Network700.node200 	discovery_latency 	4476
scalar Network700.node200 	number_of_desired_resources 	20
scalar Network700.node200 	query_homogenity_rate 	33.333333333333
scalar Network700.node200 	qrecord_time 	11342.991361283
scalar Network700.node200 	discovery_resolution_rate 	0
scalar Network700.node130 	rate_of_requesters 	1
scalar Network700.node130 	number_of_resources 	38500
scalar Network700.node130 	time_period 	3
scalar Network700.node130 	number_of_messages 	2
scalar Network700.node130 	discovery_latency 	4524
scalar Network700.node130 	number_of_desired_resources 	20
scalar Network700.node130 	query_homogenity_rate 	33.333333333333
scalar Network700.node130 	qrecord_time 	11397.970252394
scalar Network700.node130 	discovery_resolution_rate 	0
scalar Network700.node60 	rate_of_requesters 	1
scalar Network700.node60 	number_of_resources 	38500
scalar Network700.node60 	time_period 	2
scalar Network700.node60 	number_of_messages 	2
scalar Network700.node60 	discovery_latency 	4530
scalar Network700.node60 	number_of_desired_resources 	20
scalar Network700.node60 	query_homogenity_rate 	33.333333333333
scalar Network700.node60 	qrecord_time 	11440.179571344
scalar Network700.node60 	discovery_resolution_rate 	0
scalar Network700.node460 	rate_of_requesters 	1
scalar Network700.node460 	number_of_resources 	38500
scalar Network700.node460 	time_period 	3
scalar Network700.node460 	number_of_messages 	0
scalar Network700.node460 	discovery_latency 	4566
scalar Network700.node460 	number_of_desired_resources 	20
scalar Network700.node460 	query_homogenity_rate 	33.333333333333
scalar Network700.node460 	qrecord_time 	11475.244550068
scalar Network700.node460 	discovery_resolution_rate 	0
scalar Network700.node550 	rate_of_requesters 	1
scalar Network700.node550 	number_of_resources 	38500
scalar Network700.node550 	time_period 	2
scalar Network700.node550 	number_of_messages 	0
scalar Network700.node550 	discovery_latency 	4506
scalar Network700.node550 	number_of_desired_resources 	20
scalar Network700.node550 	query_homogenity_rate 	33.333333333333
scalar Network700.node550 	qrecord_time 	11529.362175476
scalar Network700.node550 	discovery_resolution_rate 	0
scalar Network700.node130 	rate_of_requesters 	1
scalar Network700.node130 	number_of_resources 	38500
scalar Network700.node130 	time_period 	4
scalar Network700.node130 	number_of_messages 	2
scalar Network700.node130 	discovery_latency 	4542
scalar Network700.node130 	number_of_desired_resources 	20
scalar Network700.node130 	query_homogenity_rate 	33.333333333333
scalar Network700.node130 	qrecord_time 	11563.948348778
scalar Network700.node130 	discovery_resolution_rate 	0
scalar Network700.node670 	rate_of_requesters 	1
scalar Network700.node670 	number_of_resources 	38500
scalar Network700.node670 	time_period 	3
scalar Network700.node670 	number_of_messages 	2
scalar Network700.node670 	discovery_latency 	4710
scalar Network700.node670 	number_of_desired_resources 	20
scalar Network700.node670 	query_homogenity_rate 	33.333333333333
scalar Network700.node670 	qrecord_time 	11587.881263261
scalar Network700.node670 	discovery_resolution_rate 	0
scalar Network700.node30 	rate_of_requesters 	1
scalar Network700.node30 	number_of_resources 	38500
scalar Network700.node30 	time_period 	2
scalar Network700.node30 	number_of_messages 	2
scalar Network700.node30 	discovery_latency 	4506
scalar Network700.node30 	number_of_desired_resources 	20
scalar Network700.node30 	query_homogenity_rate 	33.333333333333
scalar Network700.node30 	qrecord_time 	11610.694664967
scalar Network700.node30 	discovery_resolution_rate 	0
scalar Network700.node460 	rate_of_requesters 	1
scalar Network700.node460 	number_of_resources 	38500
scalar Network700.node460 	time_period 	4
scalar Network700.node460 	number_of_messages 	0
scalar Network700.node460 	discovery_latency 	4470
scalar Network700.node460 	number_of_desired_resources 	20
scalar Network700.node460 	query_homogenity_rate 	33.333333333333
scalar Network700.node460 	qrecord_time 	11612.035432179
scalar Network700.node460 	discovery_resolution_rate 	0
scalar Network700.node530 	rate_of_requesters 	1
scalar Network700.node530 	number_of_resources 	38500
scalar Network700.node530 	time_period 	4
scalar Network700.node530 	number_of_messages 	2
scalar Network700.node530 	discovery_latency 	4530
scalar Network700.node530 	number_of_desired_resources 	20
scalar Network700.node530 	query_homogenity_rate 	33.333333333333
scalar Network700.node530 	qrecord_time 	11635.915987069
scalar Network700.node530 	discovery_resolution_rate 	0
scalar Network700.node640 	rate_of_requesters 	1
scalar Network700.node640 	number_of_resources 	38500
scalar Network700.node640 	time_period 	2
scalar Network700.node640 	number_of_messages 	2
scalar Network700.node640 	discovery_latency 	4590
scalar Network700.node640 	number_of_desired_resources 	20
scalar Network700.node640 	query_homogenity_rate 	33.333333333333
scalar Network700.node640 	qrecord_time 	11866.091108857
scalar Network700.node640 	discovery_resolution_rate 	0
scalar Network700.node290 	rate_of_requesters 	1
scalar Network700.node290 	number_of_resources 	38500
scalar Network700.node290 	time_period 	2
scalar Network700.node290 	number_of_messages 	2
scalar Network700.node290 	discovery_latency 	4674
scalar Network700.node290 	number_of_desired_resources 	20
scalar Network700.node290 	query_homogenity_rate 	33.333333333333
scalar Network700.node290 	qrecord_time 	11894.605237303
scalar Network700.node290 	discovery_resolution_rate 	0
scalar Network700.node20 	rate_of_requesters 	1
scalar Network700.node20 	number_of_resources 	38500
scalar Network700.node20 	time_period 	2
scalar Network700.node20 	number_of_messages 	2
scalar Network700.node20 	discovery_latency 	4578
scalar Network700.node20 	number_of_desired_resources 	20
scalar Network700.node20 	query_homogenity_rate 	33.333333333333
scalar Network700.node20 	qrecord_time 	11932.291383987
scalar Network700.node20 	discovery_resolution_rate 	0
scalar Network700.node480 	rate_of_requesters 	1
scalar Network700.node480 	number_of_resources 	38500
scalar Network700.node480 	time_period 	3
scalar Network700.node480 	number_of_messages 	2
scalar Network700.node480 	discovery_latency 	4590
scalar Network700.node480 	number_of_desired_resources 	20
scalar Network700.node480 	query_homogenity_rate 	33.333333333333
scalar Network700.node480 	qrecord_time 	11944.570523474
scalar Network700.node480 	discovery_resolution_rate 	0
scalar Network700.node10 	rate_of_requesters 	1
scalar Network700.node10 	number_of_resources 	38500
scalar Network700.node10 	time_period 	2
scalar Network700.node10 	number_of_messages 	2
scalar Network700.node10 	discovery_latency 	4614
scalar Network700.node10 	number_of_desired_resources 	20
scalar Network700.node10 	query_homogenity_rate 	33.333333333333
scalar Network700.node10 	qrecord_time 	12008.947614296
scalar Network700.node10 	discovery_resolution_rate 	0
scalar Network700.node570 	rate_of_requesters 	1
scalar Network700.node570 	number_of_resources 	38500
scalar Network700.node570 	time_period 	2
scalar Network700.node570 	number_of_messages 	2
scalar Network700.node570 	discovery_latency 	4440
scalar Network700.node570 	number_of_desired_resources 	20
scalar Network700.node570 	query_homogenity_rate 	33.333333333333
scalar Network700.node570 	qrecord_time 	12071.091002215
scalar Network700.node570 	discovery_resolution_rate 	0
scalar Network700.node600 	rate_of_requesters 	1
scalar Network700.node600 	number_of_resources 	38500
scalar Network700.node600 	time_period 	3
scalar Network700.node600 	number_of_messages 	2
scalar Network700.node600 	discovery_latency 	4650
scalar Network700.node600 	number_of_desired_resources 	20
scalar Network700.node600 	query_homogenity_rate 	33.333333333333
scalar Network700.node600 	qrecord_time 	12118.510107745
scalar Network700.node600 	discovery_resolution_rate 	0
scalar Network700.node140 	rate_of_requesters 	1
scalar Network700.node140 	number_of_resources 	38500
scalar Network700.node140 	time_period 	2
scalar Network700.node140 	number_of_messages 	2
scalar Network700.node140 	discovery_latency 	4440
scalar Network700.node140 	number_of_desired_resources 	20
scalar Network700.node140 	query_homogenity_rate 	33.333333333333
scalar Network700.node140 	qrecord_time 	12151.060587063
scalar Network700.node140 	discovery_resolution_rate 	0
scalar Network700.node280 	rate_of_requesters 	1
scalar Network700.node280 	number_of_resources 	38500
scalar Network700.node280 	time_period 	3
scalar Network700.node280 	number_of_messages 	2
scalar Network700.node280 	discovery_latency 	4518
scalar Network700.node280 	number_of_desired_resources 	20
scalar Network700.node280 	query_homogenity_rate 	33.333333333333
scalar Network700.node280 	qrecord_time 	12285.582413449
scalar Network700.node280 	discovery_resolution_rate 	0
scalar Network700.node530 	rate_of_requesters 	1
scalar Network700.node530 	number_of_resources 	38500
scalar Network700.node530 	time_period 	5
scalar Network700.node530 	number_of_messages 	2
scalar Network700.node530 	discovery_latency 	4758
scalar Network700.node530 	number_of_desired_resources 	20
scalar Network700.node530 	query_homogenity_rate 	33.333333333333
scalar Network700.node530 	qrecord_time 	12311.557342498
scalar Network700.node530 	discovery_resolution_rate 	0
scalar Network700.node50 	rate_of_requesters 	1
scalar Network700.node50 	number_of_resources 	38500
scalar Network700.node50 	time_period 	4
scalar Network700.node50 	number_of_messages 	2
scalar Network700.node50 	discovery_latency 	4614
scalar Network700.node50 	number_of_desired_resources 	20
scalar Network700.node50 	query_homogenity_rate 	33.333333333333
scalar Network700.node50 	qrecord_time 	12364.100287301
scalar Network700.node50 	discovery_resolution_rate 	0
scalar Network700.node270 	rate_of_requesters 	1
scalar Network700.node270 	number_of_resources 	38500
scalar Network700.node270 	time_period 	2
scalar Network700.node270 	number_of_messages 	0
scalar Network700.node270 	discovery_latency 	4554
scalar Network700.node270 	number_of_desired_resources 	20
scalar Network700.node270 	query_homogenity_rate 	33.333333333333
scalar Network700.node270 	qrecord_time 	12448.799406622
scalar Network700.node270 	discovery_resolution_rate 	0
scalar Network700.node600 	rate_of_requesters 	1
scalar Network700.node600 	number_of_resources 	38500
scalar Network700.node600 	time_period 	4
scalar Network700.node600 	number_of_messages 	2
scalar Network700.node600 	discovery_latency 	4518
scalar Network700.node600 	number_of_desired_resources 	20
scalar Network700.node600 	query_homogenity_rate 	33.333333333333
scalar Network700.node600 	qrecord_time 	12519.836615703
scalar Network700.node600 	discovery_resolution_rate 	0
scalar Network700.node330 	rate_of_requesters 	1
scalar Network700.node330 	number_of_resources 	38500
scalar Network700.node330 	time_period 	2
scalar Network700.node330 	number_of_messages 	2
scalar Network700.node330 	discovery_latency 	4650
scalar Network700.node330 	number_of_desired_resources 	20
scalar Network700.node330 	query_homogenity_rate 	33.333333333333
scalar Network700.node330 	qrecord_time 	12528.285340212
scalar Network700.node330 	discovery_resolution_rate 	0
scalar Network700.node410 	rate_of_requesters 	1
scalar Network700.node410 	number_of_resources 	38500
scalar Network700.node410 	time_period 	3
scalar Network700.node410 	number_of_messages 	2
scalar Network700.node410 	discovery_latency 	4590
scalar Network700.node410 	number_of_desired_resources 	20
scalar Network700.node410 	query_homogenity_rate 	33.333333333333
scalar Network700.node410 	qrecord_time 	12639.778390273
scalar Network700.node410 	discovery_resolution_rate 	0
scalar Network700.node530 	rate_of_requesters 	1
scalar Network700.node530 	number_of_resources 	38500
scalar Network700.node530 	time_period 	6
scalar Network700.node530 	number_of_messages 	2
scalar Network700.node530 	discovery_latency 	4602
scalar Network700.node530 	number_of_desired_resources 	20
scalar Network700.node530 	query_homogenity_rate 	33.333333333333
scalar Network700.node530 	qrecord_time 	12672.706024845
scalar Network700.node530 	discovery_resolution_rate 	0
scalar Network700.node410 	rate_of_requesters 	1
scalar Network700.node410 	number_of_resources 	38500
scalar Network700.node410 	time_period 	4
scalar Network700.node410 	number_of_messages 	2
scalar Network700.node410 	discovery_latency 	4602
scalar Network700.node410 	number_of_desired_resources 	20
scalar Network700.node410 	query_homogenity_rate 	33.333333333333
scalar Network700.node410 	qrecord_time 	12675.77060748
scalar Network700.node410 	discovery_resolution_rate 	0
scalar Network700.node690 	rate_of_requesters 	1
scalar Network700.node690 	number_of_resources 	38500
scalar Network700.node690 	time_period 	2
scalar Network700.node690 	number_of_messages 	2
scalar Network700.node690 	discovery_latency 	4686
scalar Network700.node690 	number_of_desired_resources 	20
scalar Network700.node690 	query_homogenity_rate 	33.333333333333
scalar Network700.node690 	qrecord_time 	12701.606850503
scalar Network700.node690 	discovery_resolution_rate 	0
scalar Network700.node20 	rate_of_requesters 	1
scalar Network700.node20 	number_of_resources 	38500
scalar Network700.node20 	time_period 	3
scalar Network700.node20 	number_of_messages 	2
scalar Network700.node20 	discovery_latency 	4590
scalar Network700.node20 	number_of_desired_resources 	20
scalar Network700.node20 	query_homogenity_rate 	33.333333333333
scalar Network700.node20 	qrecord_time 	12958.918480564
scalar Network700.node20 	discovery_resolution_rate 	0
scalar Network700.node640 	rate_of_requesters 	1
scalar Network700.node640 	number_of_resources 	38500
scalar Network700.node640 	time_period 	3
scalar Network700.node640 	number_of_messages 	2
scalar Network700.node640 	discovery_latency 	4536
scalar Network700.node640 	number_of_desired_resources 	20
scalar Network700.node640 	query_homogenity_rate 	33.333333333333
scalar Network700.node640 	qrecord_time 	13217.393407188
scalar Network700.node640 	discovery_resolution_rate 	0
scalar Network700.node110 	rate_of_requesters 	1
scalar Network700.node110 	number_of_resources 	38500
scalar Network700.node110 	time_period 	2
scalar Network700.node110 	number_of_messages 	0
scalar Network700.node110 	discovery_latency 	4470
scalar Network700.node110 	number_of_desired_resources 	20
scalar Network700.node110 	query_homogenity_rate 	33.333333333333
scalar Network700.node110 	qrecord_time 	13226.015639924
scalar Network700.node110 	discovery_resolution_rate 	0
scalar Network700.node450 	rate_of_requesters 	1
scalar Network700.node450 	number_of_resources 	38500
scalar Network700.node450 	time_period 	2
scalar Network700.node450 	number_of_messages 	2
scalar Network700.node450 	discovery_latency 	4566
scalar Network700.node450 	number_of_desired_resources 	20
scalar Network700.node450 	query_homogenity_rate 	33.333333333333
scalar Network700.node450 	qrecord_time 	13281.820433182
scalar Network700.node450 	discovery_resolution_rate 	0
scalar Network700.node270 	rate_of_requesters 	1
scalar Network700.node270 	number_of_resources 	38500
scalar Network700.node270 	time_period 	3
scalar Network700.node270 	number_of_messages 	0
scalar Network700.node270 	discovery_latency 	4626
scalar Network700.node270 	number_of_desired_resources 	20
scalar Network700.node270 	query_homogenity_rate 	33.333333333333
scalar Network700.node270 	qrecord_time 	13353.325186687
scalar Network700.node270 	discovery_resolution_rate 	0
scalar Network700.node370 	rate_of_requesters 	1
scalar Network700.node370 	number_of_resources 	38500
scalar Network700.node370 	time_period 	2
scalar Network700.node370 	number_of_messages 	2
scalar Network700.node370 	discovery_latency 	4566
scalar Network700.node370 	number_of_desired_resources 	20
scalar Network700.node370 	query_homogenity_rate 	33.333333333333
scalar Network700.node370 	qrecord_time 	13386.784253301
scalar Network700.node370 	discovery_resolution_rate 	0
scalar Network700.node200 	rate_of_requesters 	1
scalar Network700.node200 	number_of_resources 	38500
scalar Network700.node200 	time_period 	4
scalar Network700.node200 	number_of_messages 	2
scalar Network700.node200 	discovery_latency 	4446
scalar Network700.node200 	number_of_desired_resources 	20
scalar Network700.node200 	query_homogenity_rate 	33.333333333333
scalar Network700.node200 	qrecord_time 	13425.387209364
scalar Network700.node200 	discovery_resolution_rate 	0
scalar Network700.node310 	rate_of_requesters 	1
scalar Network700.node310 	number_of_resources 	38500
scalar Network700.node310 	time_period 	3
scalar Network700.node310 	number_of_messages 	2
scalar Network700.node310 	discovery_latency 	4470
scalar Network700.node310 	number_of_desired_resources 	20
scalar Network700.node310 	query_homogenity_rate 	33.333333333333
scalar Network700.node310 	qrecord_time 	13480.597602688
scalar Network700.node310 	discovery_resolution_rate 	0
scalar Network700.node380 	rate_of_requesters 	1
scalar Network700.node380 	number_of_resources 	38500
scalar Network700.node380 	time_period 	4
scalar Network700.node380 	number_of_messages 	2
scalar Network700.node380 	discovery_latency 	4542
scalar Network700.node380 	number_of_desired_resources 	20
scalar Network700.node380 	query_homogenity_rate 	33.333333333333
scalar Network700.node380 	qrecord_time 	13523.57437629
scalar Network700.node380 	discovery_resolution_rate 	0
scalar Network700.node150 	rate_of_requesters 	1
scalar Network700.node150 	number_of_resources 	38500
scalar Network700.node150 	time_period 	3
scalar Network700.node150 	number_of_messages 	2
scalar Network700.node150 	discovery_latency 	4548
scalar Network700.node150 	number_of_desired_resources 	20
scalar Network700.node150 	query_homogenity_rate 	33.333333333333
scalar Network700.node150 	qrecord_time 	13595.578557398
scalar Network700.node150 	discovery_resolution_rate 	0
scalar Network700.node450 	rate_of_requesters 	1
scalar Network700.node450 	number_of_resources 	38500
scalar Network700.node450 	time_period 	3
scalar Network700.node450 	number_of_messages 	2
scalar Network700.node450 	discovery_latency 	4458
scalar Network700.node450 	number_of_desired_resources 	20
scalar Network700.node450 	query_homogenity_rate 	33.333333333333
scalar Network700.node450 	qrecord_time 	13602.77185558
scalar Network700.node450 	discovery_resolution_rate 	0
scalar Network700.node450 	rate_of_requesters 	1
scalar Network700.node450 	number_of_resources 	38500
scalar Network700.node450 	time_period 	4
scalar Network700.node450 	number_of_messages 	2
scalar Network700.node450 	discovery_latency 	4446
scalar Network700.node450 	number_of_desired_resources 	20
scalar Network700.node450 	query_homogenity_rate 	33.333333333333
scalar Network700.node450 	qrecord_time 	13731.54125963
scalar Network700.node450 	discovery_resolution_rate 	0
scalar Network700.node250 	rate_of_requesters 	1
scalar Network700.node250 	number_of_resources 	38500
scalar Network700.node250 	time_period 	2
scalar Network700.node250 	number_of_messages 	2
scalar Network700.node250 	discovery_latency 	4506
scalar Network700.node250 	number_of_desired_resources 	20
scalar Network700.node250 	query_homogenity_rate 	33.333333333333
scalar Network700.node250 	qrecord_time 	13735.013517678
scalar Network700.node250 	discovery_resolution_rate 	0
scalar Network700.node50 	rate_of_requesters 	1
scalar Network700.node50 	number_of_resources 	38500
scalar Network700.node50 	time_period 	5
scalar Network700.node50 	number_of_messages 	2
scalar Network700.node50 	discovery_latency 	4464
scalar Network700.node50 	number_of_desired_resources 	20
scalar Network700.node50 	query_homogenity_rate 	33.333333333333
scalar Network700.node50 	qrecord_time 	13825.188357488
scalar Network700.node50 	discovery_resolution_rate 	0
scalar Network700.node550 	rate_of_requesters 	1
scalar Network700.node550 	number_of_resources 	38500
scalar Network700.node550 	time_period 	3
scalar Network700.node550 	number_of_messages 	0
scalar Network700.node550 	discovery_latency 	4542
scalar Network700.node550 	number_of_desired_resources 	20
scalar Network700.node550 	query_homogenity_rate 	33.333333333333
scalar Network700.node550 	qrecord_time 	13935.68690323
scalar Network700.node550 	discovery_resolution_rate 	0
scalar Network700.node340 	rate_of_requesters 	1
scalar Network700.node340 	number_of_resources 	38500
scalar Network700.node340 	time_period 	3
scalar Network700.node340 	number_of_messages 	2
scalar Network700.node340 	discovery_latency 	4698
scalar Network700.node340 	number_of_desired_resources 	20
scalar Network700.node340 	query_homogenity_rate 	33.333333333333
scalar Network700.node340 	qrecord_time 	13942.298013123
scalar Network700.node340 	discovery_resolution_rate 	0
scalar Network700.node410 	rate_of_requesters 	1
scalar Network700.node410 	number_of_resources 	38500
scalar Network700.node410 	time_period 	5
scalar Network700.node410 	number_of_messages 	2
scalar Network700.node410 	discovery_latency 	4482
scalar Network700.node410 	number_of_desired_resources 	20
scalar Network700.node410 	query_homogenity_rate 	33.333333333333
scalar Network700.node410 	qrecord_time 	13965.591848197
scalar Network700.node410 	discovery_resolution_rate 	0
scalar Network700.node320 	rate_of_requesters 	1
scalar Network700.node320 	number_of_resources 	38500
scalar Network700.node320 	time_period 	2
scalar Network700.node320 	number_of_messages 	2
scalar Network700.node320 	discovery_latency 	4566
scalar Network700.node320 	number_of_desired_resources 	20
scalar Network700.node320 	query_homogenity_rate 	33.333333333333
scalar Network700.node320 	qrecord_time 	13965.780549279
scalar Network700.node320 	discovery_resolution_rate 	0
scalar Network700.node270 	rate_of_requesters 	1
scalar Network700.node270 	number_of_resources 	38500
scalar Network700.node270 	time_period 	4
scalar Network700.node270 	number_of_messages 	0
scalar Network700.node270 	discovery_latency 	4518
scalar Network700.node270 	number_of_desired_resources 	20
scalar Network700.node270 	query_homogenity_rate 	33.333333333333
scalar Network700.node270 	qrecord_time 	13971.385300249
scalar Network700.node270 	discovery_resolution_rate 	0
scalar Network700.node180 	rate_of_requesters 	1
scalar Network700.node180 	number_of_resources 	38500
scalar Network700.node180 	time_period 	2
scalar Network700.node180 	number_of_messages 	2
scalar Network700.node180 	discovery_latency 	4530
scalar Network700.node180 	number_of_desired_resources 	20
scalar Network700.node180 	query_homogenity_rate 	33.333333333333
scalar Network700.node180 	qrecord_time 	13978.070548171
scalar Network700.node180 	discovery_resolution_rate 	0
scalar Network700.node360 	rate_of_requesters 	1
scalar Network700.node360 	number_of_resources 	38500
scalar Network700.node360 	time_period 	2
scalar Network700.node360 	number_of_messages 	2
scalar Network700.node360 	discovery_latency 	4518
scalar Network700.node360 	number_of_desired_resources 	20
scalar Network700.node360 	query_homogenity_rate 	33.333333333333
scalar Network700.node360 	qrecord_time 	14048.479254607
scalar Network700.node360 	discovery_resolution_rate 	0
scalar Network700.node550 	rate_of_requesters 	1
scalar Network700.node550 	number_of_resources 	38500
scalar Network700.node550 	time_period 	4
scalar Network700.node550 	number_of_messages 	0
scalar Network700.node550 	discovery_latency 	4482
scalar Network700.node550 	number_of_desired_resources 	20
scalar Network700.node550 	query_homogenity_rate 	33.333333333333
scalar Network700.node550 	qrecord_time 	14094.188315421
scalar Network700.node550 	discovery_resolution_rate 	0
scalar Network700.node120 	rate_of_requesters 	1
scalar Network700.node120 	number_of_resources 	38500
scalar Network700.node120 	time_period 	3
scalar Network700.node120 	number_of_messages 	2
scalar Network700.node120 	discovery_latency 	4596
scalar Network700.node120 	number_of_desired_resources 	20
scalar Network700.node120 	query_homogenity_rate 	33.333333333333
scalar Network700.node120 	qrecord_time 	14225.008467746
scalar Network700.node120 	discovery_resolution_rate 	0
scalar Network700.node90 	rate_of_requesters 	1
scalar Network700.node90 	number_of_resources 	38500
scalar Network700.node90 	time_period 	2
scalar Network700.node90 	number_of_messages 	15
scalar Network700.node90 	discovery_latency 	4548
scalar Network700.node90 	number_of_desired_resources 	20
scalar Network700.node90 	query_homogenity_rate 	33.333333333333
scalar Network700.node90 	qrecord_time 	14239.632346117
scalar Network700.node90 	discovery_resolution_rate 	33.333333333333
scalar Network700.node110 	rate_of_requesters 	1
scalar Network700.node110 	number_of_resources 	38500
scalar Network700.node110 	time_period 	3
scalar Network700.node110 	number_of_messages 	0
scalar Network700.node110 	discovery_latency 	4350
scalar Network700.node110 	number_of_desired_resources 	20
scalar Network700.node110 	query_homogenity_rate 	33.333333333333
scalar Network700.node110 	qrecord_time 	14244.407735045
scalar Network700.node110 	discovery_resolution_rate 	0
scalar Network700.node0 	rate_of_requesters 	1
scalar Network700.node0 	number_of_resources 	38500
scalar Network700.node0 	time_period 	2
scalar Network700.node0 	number_of_messages 	2
scalar Network700.node0 	discovery_latency 	4602
scalar Network700.node0 	number_of_desired_resources 	20
scalar Network700.node0 	query_homogenity_rate 	33.333333333333
scalar Network700.node0 	qrecord_time 	14349.873545105
scalar Network700.node0 	discovery_resolution_rate 	0
scalar Network700.node170 	rate_of_requesters 	1
scalar Network700.node170 	number_of_resources 	38500
scalar Network700.node170 	time_period 	3
scalar Network700.node170 	number_of_messages 	9
scalar Network700.node170 	discovery_latency 	4404
scalar Network700.node170 	number_of_desired_resources 	20
scalar Network700.node170 	query_homogenity_rate 	33.333333333333
scalar Network700.node170 	qrecord_time 	14409.366121542
scalar Network700.node170 	discovery_resolution_rate 	33.333333333333
scalar Network700.node170 	rate_of_requesters 	1
scalar Network700.node170 	number_of_resources 	38500
scalar Network700.node170 	time_period 	2
scalar Network700.node170 	number_of_messages 	38
scalar Network700.node170 	discovery_latency 	4614
scalar Network700.node170 	number_of_desired_resources 	20
scalar Network700.node170 	query_homogenity_rate 	33.333333333333
scalar Network700.node170 	qrecord_time 	14427.593933244
scalar Network700.node170 	discovery_resolution_rate 	33.333333333333
scalar Network700.node50 	rate_of_requesters 	1
scalar Network700.node50 	number_of_resources 	38500
scalar Network700.node50 	time_period 	6
scalar Network700.node50 	number_of_messages 	44
scalar Network700.node50 	discovery_latency 	3888
scalar Network700.node50 	number_of_desired_resources 	20
scalar Network700.node50 	query_homogenity_rate 	33.333333333333
scalar Network700.node50 	qrecord_time 	14444.085556011
scalar Network700.node50 	discovery_resolution_rate 	66.666666666667
scalar Network700.node640 	rate_of_requesters 	1
scalar Network700.node640 	number_of_resources 	38500
scalar Network700.node640 	time_period 	4
scalar Network700.node640 	number_of_messages 	2
scalar Network700.node640 	discovery_latency 	4434
scalar Network700.node640 	number_of_desired_resources 	20
scalar Network700.node640 	query_homogenity_rate 	33.333333333333
scalar Network700.node640 	qrecord_time 	14459.365916284
scalar Network700.node640 	discovery_resolution_rate 	0
scalar Network700.node370 	rate_of_requesters 	1
scalar Network700.node370 	number_of_resources 	38500
scalar Network700.node370 	time_period 	3
scalar Network700.node370 	number_of_messages 	8
scalar Network700.node370 	discovery_latency 	4392
scalar Network700.node370 	number_of_desired_resources 	20
scalar Network700.node370 	query_homogenity_rate 	33.333333333333
scalar Network700.node370 	qrecord_time 	14746.291002312
scalar Network700.node370 	discovery_resolution_rate 	33.333333333333
scalar Network700.node230 	rate_of_requesters 	1
scalar Network700.node230 	number_of_resources 	38500
scalar Network700.node230 	time_period 	2
scalar Network700.node230 	number_of_messages 	38
scalar Network700.node230 	discovery_latency 	4368
scalar Network700.node230 	number_of_desired_resources 	20
scalar Network700.node230 	query_homogenity_rate 	33.333333333333
scalar Network700.node230 	qrecord_time 	14757.586958042
scalar Network700.node230 	discovery_resolution_rate 	33.333333333333
scalar Network700.node390 	rate_of_requesters 	1
scalar Network700.node390 	number_of_resources 	38500
scalar Network700.node390 	time_period 	3
scalar Network700.node390 	number_of_messages 	24
scalar Network700.node390 	discovery_latency 	4476
scalar Network700.node390 	number_of_desired_resources 	20
scalar Network700.node390 	query_homogenity_rate 	33.333333333333
scalar Network700.node390 	qrecord_time 	14854.759688582
scalar Network700.node390 	discovery_resolution_rate 	33.333333333333
scalar Network700.node360 	rate_of_requesters 	1
scalar Network700.node360 	number_of_resources 	38500
scalar Network700.node360 	time_period 	3
scalar Network700.node360 	number_of_messages 	2
scalar Network700.node360 	discovery_latency 	4506
scalar Network700.node360 	number_of_desired_resources 	20
scalar Network700.node360 	query_homogenity_rate 	33.333333333333
scalar Network700.node360 	qrecord_time 	14897.901378789
scalar Network700.node360 	discovery_resolution_rate 	0
scalar Network700.node60 	rate_of_requesters 	1
scalar Network700.node60 	number_of_resources 	38500
scalar Network700.node60 	time_period 	3
scalar Network700.node60 	number_of_messages 	43
scalar Network700.node60 	discovery_latency 	4344
scalar Network700.node60 	number_of_desired_resources 	20
scalar Network700.node60 	query_homogenity_rate 	33.333333333333
scalar Network700.node60 	qrecord_time 	14969.18862777
scalar Network700.node60 	discovery_resolution_rate 	33.333333333333
scalar Network700.node180 	rate_of_requesters 	1
scalar Network700.node180 	number_of_resources 	38500
scalar Network700.node180 	time_period 	3
scalar Network700.node180 	number_of_messages 	50
scalar Network700.node180 	discovery_latency 	3924
scalar Network700.node180 	number_of_desired_resources 	20
scalar Network700.node180 	query_homogenity_rate 	33.333333333333
scalar Network700.node180 	qrecord_time 	15007.205153417
scalar Network700.node180 	discovery_resolution_rate 	66.666666666667
scalar Network700.node280 	rate_of_requesters 	1
scalar Network700.node280 	number_of_resources 	38500
scalar Network700.node280 	time_period 	4
scalar Network700.node280 	number_of_messages 	2
scalar Network700.node280 	discovery_latency 	4470
scalar Network700.node280 	number_of_desired_resources 	20
scalar Network700.node280 	query_homogenity_rate 	33.333333333333
scalar Network700.node280 	qrecord_time 	15328.830370904
scalar Network700.node280 	discovery_resolution_rate 	0
scalar Network700.node420 	rate_of_requesters 	1
scalar Network700.node420 	number_of_resources 	38500
scalar Network700.node420 	time_period 	2
scalar Network700.node420 	number_of_messages 	2
scalar Network700.node420 	discovery_latency 	4542
scalar Network700.node420 	number_of_desired_resources 	20
scalar Network700.node420 	query_homogenity_rate 	33.333333333333
scalar Network700.node420 	qrecord_time 	15334.778030978
scalar Network700.node420 	discovery_resolution_rate 	0
scalar Network700.node20 	rate_of_requesters 	1
scalar Network700.node20 	number_of_resources 	38500
[...]
scalar Network700.node70 	query_homogenity_rate 	33.333333333333
scalar Network700.node70 	qrecord_time 	51050.587858017
scalar Network700.node70 	discovery_resolution_rate 	33.333333333333
scalar Network700.node350 	rate_of_requesters 	1
scalar Network700.node350 	number_of_resources 	38500
scalar Network700.node350 	time_period 	10
scalar Network700.node350 	number_of_messages 	65
scalar Network700.node350 	discovery_latency 	3768
scalar Network700.node350 	number_of_desired_resources 	20
scalar Network700.node350 	query_homogenity_rate 	33.333333333333
scalar Network700.node350 	qrecord_time 	51065.918358223
scalar Network700.node350 	discovery_resolution_rate 	66.666666666667
scalar Network700.node360 	rate_of_requesters 	1
scalar Network700.node360 	number_of_resources 	38500
scalar Network700.node360 	time_period 	9
scalar Network700.node360 	number_of_messages 	23
scalar Network700.node360 	discovery_latency 	4500
scalar Network700.node360 	number_of_desired_resources 	20
scalar Network700.node360 	query_homogenity_rate 	33.333333333333
scalar Network700.node360 	qrecord_time 	51077.210380188
scalar Network700.node360 	discovery_resolution_rate 	33.333333333333
scalar Network700.node40 	rate_of_requesters 	1
scalar Network700.node40 	number_of_resources 	38500
scalar Network700.node40 	time_period 	7
scalar Network700.node40 	number_of_messages 	12
scalar Network700.node40 	discovery_latency 	4404
scalar Network700.node40 	number_of_desired_resources 	20
scalar Network700.node40 	query_homogenity_rate 	33.333333333333
scalar Network700.node40 	qrecord_time 	51099.298264898
scalar Network700.node40 	discovery_resolution_rate 	33.333333333333
scalar Network700.node320 	rate_of_requesters 	1
scalar Network700.node320 	number_of_resources 	38500
scalar Network700.node320 	time_period 	10
scalar Network700.node320 	number_of_messages 	202
scalar Network700.node320 	discovery_latency 	4530
scalar Network700.node320 	number_of_desired_resources 	20
scalar Network700.node320 	query_homogenity_rate 	33.333333333333
scalar Network700.node320 	qrecord_time 	51248.071830943
scalar Network700.node320 	discovery_resolution_rate 	16.666666666667
scalar Network700.node440 	rate_of_requesters 	1
scalar Network700.node440 	number_of_resources 	38500
scalar Network700.node440 	time_period 	9
scalar Network700.node440 	number_of_messages 	29
scalar Network700.node440 	discovery_latency 	3696
scalar Network700.node440 	number_of_desired_resources 	20
scalar Network700.node440 	query_homogenity_rate 	33.333333333333
scalar Network700.node440 	qrecord_time 	51293.498771237
scalar Network700.node440 	discovery_resolution_rate 	66.666666666667
scalar Network700.node590 	rate_of_requesters 	1
scalar Network700.node590 	number_of_resources 	38500
scalar Network700.node590 	time_period 	7
scalar Network700.node590 	number_of_messages 	2
scalar Network700.node590 	discovery_latency 	4494
scalar Network700.node590 	number_of_desired_resources 	20
scalar Network700.node590 	query_homogenity_rate 	33.333333333333
scalar Network700.node590 	qrecord_time 	51313.009509631
scalar Network700.node590 	discovery_resolution_rate 	0
scalar Network700.node110 	rate_of_requesters 	1
scalar Network700.node110 	number_of_resources 	38500
scalar Network700.node110 	time_period 	10
scalar Network700.node110 	number_of_messages 	0
scalar Network700.node110 	discovery_latency 	4578
scalar Network700.node110 	number_of_desired_resources 	20
scalar Network700.node110 	query_homogenity_rate 	33.333333333333
scalar Network700.node110 	qrecord_time 	51372.118731493
scalar Network700.node110 	discovery_resolution_rate 	0
scalar Network700.node390 	rate_of_requesters 	1
scalar Network700.node390 	number_of_resources 	38500
scalar Network700.node390 	time_period 	10
scalar Network700.node390 	number_of_messages 	23
scalar Network700.node390 	discovery_latency 	4416
scalar Network700.node390 	number_of_desired_resources 	20
scalar Network700.node390 	query_homogenity_rate 	33.333333333333
scalar Network700.node390 	qrecord_time 	51565.685582325
scalar Network700.node390 	discovery_resolution_rate 	33.333333333333
scalar Network700.node590 	rate_of_requesters 	1
scalar Network700.node590 	number_of_resources 	38500
scalar Network700.node590 	time_period 	8
scalar Network700.node590 	number_of_messages 	202
scalar Network700.node590 	discovery_latency 	4542
scalar Network700.node590 	number_of_desired_resources 	20
scalar Network700.node590 	query_homogenity_rate 	33.333333333333
scalar Network700.node590 	qrecord_time 	51618.928911998
scalar Network700.node590 	discovery_resolution_rate 	16.666666666667
scalar Network700.node180 	rate_of_requesters 	1
scalar Network700.node180 	number_of_resources 	38500
scalar Network700.node180 	time_period 	9
scalar Network700.node180 	number_of_messages 	202
scalar Network700.node180 	discovery_latency 	4542
scalar Network700.node180 	number_of_desired_resources 	20
scalar Network700.node180 	query_homogenity_rate 	33.333333333333
scalar Network700.node180 	qrecord_time 	51877.616434003
scalar Network700.node180 	discovery_resolution_rate 	16.666666666667
scalar Network700.node520 	rate_of_requesters 	1
scalar Network700.node520 	number_of_resources 	38500
scalar Network700.node520 	time_period 	10
scalar Network700.node520 	number_of_messages 	12
scalar Network700.node520 	discovery_latency 	4476
scalar Network700.node520 	number_of_desired_resources 	20
scalar Network700.node520 	query_homogenity_rate 	33.333333333333
scalar Network700.node520 	qrecord_time 	52346.220499433
scalar Network700.node520 	discovery_resolution_rate 	33.333333333333
scalar Network700.node180 	rate_of_requesters 	1
scalar Network700.node180 	number_of_resources 	38500
scalar Network700.node180 	time_period 	10
scalar Network700.node180 	number_of_messages 	9
scalar Network700.node180 	discovery_latency 	4380
scalar Network700.node180 	number_of_desired_resources 	20
scalar Network700.node180 	query_homogenity_rate 	33.333333333333
scalar Network700.node180 	qrecord_time 	52490.600489428
scalar Network700.node180 	discovery_resolution_rate 	33.333333333333
scalar Network700.node590 	rate_of_requesters 	1
scalar Network700.node590 	number_of_resources 	38500
scalar Network700.node590 	time_period 	9
scalar Network700.node590 	number_of_messages 	2
scalar Network700.node590 	discovery_latency 	4566
scalar Network700.node590 	number_of_desired_resources 	20
scalar Network700.node590 	query_homogenity_rate 	33.333333333333
scalar Network700.node590 	qrecord_time 	52659.243109409
scalar Network700.node590 	discovery_resolution_rate 	0
scalar Network700.node130 	rate_of_requesters 	1
scalar Network700.node130 	number_of_resources 	38500
scalar Network700.node130 	time_period 	10
scalar Network700.node130 	number_of_messages 	14
scalar Network700.node130 	discovery_latency 	4494
scalar Network700.node130 	number_of_desired_resources 	20
scalar Network700.node130 	query_homogenity_rate 	33.333333333333
scalar Network700.node130 	qrecord_time 	52937.45647828
scalar Network700.node130 	discovery_resolution_rate 	33.333333333333
scalar Network700.node260 	rate_of_requesters 	1
scalar Network700.node260 	number_of_resources 	38500
scalar Network700.node260 	time_period 	10
scalar Network700.node260 	number_of_messages 	34
scalar Network700.node260 	discovery_latency 	3768
scalar Network700.node260 	number_of_desired_resources 	20
scalar Network700.node260 	query_homogenity_rate 	33.333333333333
scalar Network700.node260 	qrecord_time 	53065.697557824
scalar Network700.node260 	discovery_resolution_rate 	66.666666666667
scalar Network700.node640 	rate_of_requesters 	1
scalar Network700.node640 	number_of_resources 	38500
scalar Network700.node640 	time_period 	10
scalar Network700.node640 	number_of_messages 	49
scalar Network700.node640 	discovery_latency 	4464
scalar Network700.node640 	number_of_desired_resources 	20
scalar Network700.node640 	query_homogenity_rate 	33.333333333333
scalar Network700.node640 	qrecord_time 	53317.925383065
scalar Network700.node640 	discovery_resolution_rate 	33.333333333333
scalar Network700.node70 	rate_of_requesters 	1
scalar Network700.node70 	number_of_resources 	38500
scalar Network700.node70 	time_period 	10
scalar Network700.node70 	number_of_messages 	2
scalar Network700.node70 	discovery_latency 	4536
scalar Network700.node70 	number_of_desired_resources 	20
scalar Network700.node70 	query_homogenity_rate 	33.333333333333
scalar Network700.node70 	qrecord_time 	53501.619344644
scalar Network700.node70 	discovery_resolution_rate 	0
scalar Network700.node590 	rate_of_requesters 	1
scalar Network700.node590 	number_of_resources 	38500
scalar Network700.node590 	time_period 	10
scalar Network700.node590 	number_of_messages 	18
scalar Network700.node590 	discovery_latency 	4524
scalar Network700.node590 	number_of_desired_resources 	20
scalar Network700.node590 	query_homogenity_rate 	33.333333333333
scalar Network700.node590 	qrecord_time 	53802.731420907
scalar Network700.node590 	discovery_resolution_rate 	33.333333333333
scalar Network700.node650 	rate_of_requesters 	1
scalar Network700.node650 	number_of_resources 	38500
scalar Network700.node650 	time_period 	7
scalar Network700.node650 	number_of_messages 	2
scalar Network700.node650 	discovery_latency 	4536
scalar Network700.node650 	number_of_desired_resources 	20
scalar Network700.node650 	query_homogenity_rate 	33.333333333333
scalar Network700.node650 	qrecord_time 	54087.615915818
scalar Network700.node650 	discovery_resolution_rate 	0
scalar Network700.node540 	rate_of_requesters 	1
scalar Network700.node540 	number_of_resources 	38500
scalar Network700.node540 	time_period 	10
scalar Network700.node540 	number_of_messages 	24
scalar Network700.node540 	discovery_latency 	4446
scalar Network700.node540 	number_of_desired_resources 	20
scalar Network700.node540 	query_homogenity_rate 	33.333333333333
scalar Network700.node540 	qrecord_time 	54159.863934673
scalar Network700.node540 	discovery_resolution_rate 	33.333333333333
scalar Network700.node650 	rate_of_requesters 	1
scalar Network700.node650 	number_of_resources 	38500
scalar Network700.node650 	time_period 	8
scalar Network700.node650 	number_of_messages 	2
scalar Network700.node650 	discovery_latency 	4500
scalar Network700.node650 	number_of_desired_resources 	20
scalar Network700.node650 	query_homogenity_rate 	33.333333333333
scalar Network700.node650 	qrecord_time 	54219.076264275
scalar Network700.node650 	discovery_resolution_rate 	0
scalar Network700.node300 	rate_of_requesters 	1
scalar Network700.node300 	number_of_resources 	38500
scalar Network700.node300 	time_period 	5
scalar Network700.node300 	number_of_messages 	21
scalar Network700.node300 	discovery_latency 	4488
scalar Network700.node300 	number_of_desired_resources 	20
scalar Network700.node300 	query_homogenity_rate 	33.333333333333
scalar Network700.node300 	qrecord_time 	54236.783439602
scalar Network700.node300 	discovery_resolution_rate 	33.333333333333
scalar Network700.node20 	rate_of_requesters 	1
scalar Network700.node20 	number_of_resources 	38500
scalar Network700.node20 	time_period 	10
scalar Network700.node20 	number_of_messages 	2
scalar Network700.node20 	discovery_latency 	4542
scalar Network700.node20 	number_of_desired_resources 	20
scalar Network700.node20 	query_homogenity_rate 	33.333333333333
scalar Network700.node20 	qrecord_time 	54256.988175533
scalar Network700.node20 	discovery_resolution_rate 	0
scalar Network700.node650 	rate_of_requesters 	1
scalar Network700.node650 	number_of_resources 	38500
scalar Network700.node650 	time_period 	9
scalar Network700.node650 	number_of_messages 	19
scalar Network700.node650 	discovery_latency 	3684
scalar Network700.node650 	number_of_desired_resources 	20
scalar Network700.node650 	query_homogenity_rate 	33.333333333333
scalar Network700.node650 	qrecord_time 	56443.254794671
scalar Network700.node650 	discovery_resolution_rate 	66.666666666667
scalar Network700.node560 	rate_of_requesters 	1
scalar Network700.node560 	number_of_resources 	38500
scalar Network700.node560 	time_period 	10
scalar Network700.node560 	number_of_messages 	10
scalar Network700.node560 	discovery_latency 	3708
scalar Network700.node560 	number_of_desired_resources 	20
scalar Network700.node560 	query_homogenity_rate 	33.333333333333
scalar Network700.node560 	qrecord_time 	56772.956314618
scalar Network700.node560 	discovery_resolution_rate 	66.666666666667
scalar Network700.node650 	rate_of_requesters 	1
scalar Network700.node650 	number_of_resources 	38500
scalar Network700.node650 	time_period 	10
scalar Network700.node650 	number_of_messages 	19
scalar Network700.node650 	discovery_latency 	3768
scalar Network700.node650 	number_of_desired_resources 	20
scalar Network700.node650 	query_homogenity_rate 	33.333333333333
scalar Network700.node650 	qrecord_time 	57822.552144224
scalar Network700.node650 	discovery_resolution_rate 	66.666666666667
scalar Network700.node300 	rate_of_requesters 	1
scalar Network700.node300 	number_of_resources 	38500
scalar Network700.node300 	time_period 	6
scalar Network700.node300 	number_of_messages 	27
scalar Network700.node300 	discovery_latency 	3744
scalar Network700.node300 	number_of_desired_resources 	20
scalar Network700.node300 	query_homogenity_rate 	33.333333333333
scalar Network700.node300 	qrecord_time 	57864.344528079
scalar Network700.node300 	discovery_resolution_rate 	66.666666666667
scalar Network700.node440 	rate_of_requesters 	1
scalar Network700.node440 	number_of_resources 	38500
scalar Network700.node440 	time_period 	10
scalar Network700.node440 	number_of_messages 	12
scalar Network700.node440 	discovery_latency 	3792
scalar Network700.node440 	number_of_desired_resources 	20
scalar Network700.node440 	query_homogenity_rate 	33.333333333333
scalar Network700.node440 	qrecord_time 	57910.060354807
scalar Network700.node440 	discovery_resolution_rate 	66.666666666667
scalar Network700.node360 	rate_of_requesters 	1
scalar Network700.node360 	number_of_resources 	38500
scalar Network700.node360 	time_period 	10
scalar Network700.node360 	number_of_messages 	26
scalar Network700.node360 	discovery_latency 	3864
scalar Network700.node360 	number_of_desired_resources 	20
scalar Network700.node360 	query_homogenity_rate 	33.333333333333
scalar Network700.node360 	qrecord_time 	59078.936097133
scalar Network700.node360 	discovery_resolution_rate 	66.666666666667
scalar Network700.node300 	rate_of_requesters 	1
scalar Network700.node300 	number_of_resources 	38500
scalar Network700.node300 	time_period 	7
scalar Network700.node300 	number_of_messages 	27
scalar Network700.node300 	discovery_latency 	3708
scalar Network700.node300 	number_of_desired_resources 	20
scalar Network700.node300 	query_homogenity_rate 	33.333333333333
scalar Network700.node300 	qrecord_time 	60190.361125286
scalar Network700.node300 	discovery_resolution_rate 	66.666666666667
scalar Network700.node300 	rate_of_requesters 	1
scalar Network700.node300 	number_of_resources 	38500
scalar Network700.node300 	time_period 	8
scalar Network700.node300 	number_of_messages 	16
scalar Network700.node300 	discovery_latency 	3816
scalar Network700.node300 	number_of_desired_resources 	20
scalar Network700.node300 	query_homogenity_rate 	33.333333333333
scalar Network700.node300 	qrecord_time 	61452.289911129
scalar Network700.node300 	discovery_resolution_rate 	66.666666666667
scalar Network700.node300 	rate_of_requesters 	1
scalar Network700.node300 	number_of_resources 	38500
scalar Network700.node300 	time_period 	9
scalar Network700.node300 	number_of_messages 	16
scalar Network700.node300 	discovery_latency 	3720
scalar Network700.node300 	number_of_desired_resources 	20
scalar Network700.node300 	query_homogenity_rate 	33.333333333333
scalar Network700.node300 	qrecord_time 	62382.925926212
scalar Network700.node300 	discovery_resolution_rate 	66.666666666667
scalar Network700.node40 	rate_of_requesters 	1
scalar Network700.node40 	number_of_resources 	38500
scalar Network700.node40 	time_period 	8
scalar Network700.node40 	number_of_messages 	30
scalar Network700.node40 	discovery_latency 	3708
scalar Network700.node40 	number_of_desired_resources 	20
scalar Network700.node40 	query_homogenity_rate 	33.333333333333
scalar Network700.node40 	qrecord_time 	62905.386882324
scalar Network700.node40 	discovery_resolution_rate 	66.666666666667
scalar Network700.node470 	rate_of_requesters 	1
scalar Network700.node470 	number_of_resources 	38500
scalar Network700.node470 	time_period 	10
scalar Network700.node470 	number_of_messages 	27
scalar Network700.node470 	discovery_latency 	3912
scalar Network700.node470 	number_of_desired_resources 	20
scalar Network700.node470 	query_homogenity_rate 	33.333333333333
scalar Network700.node470 	qrecord_time 	63424.552184388
scalar Network700.node470 	discovery_resolution_rate 	66.666666666667
scalar Network700.node300 	rate_of_requesters 	1
scalar Network700.node300 	number_of_resources 	38500
scalar Network700.node300 	time_period 	10
scalar Network700.node300 	number_of_messages 	21
scalar Network700.node300 	discovery_latency 	3828
scalar Network700.node300 	number_of_desired_resources 	20
scalar Network700.node300 	query_homogenity_rate 	33.333333333333
scalar Network700.node300 	qrecord_time 	64732.212071623
scalar Network700.node300 	discovery_resolution_rate 	66.666666666667
scalar Network700.node150 	rate_of_requesters 	1
scalar Network700.node150 	number_of_resources 	38500
scalar Network700.node150 	time_period 	8
scalar Network700.node150 	number_of_messages 	14
scalar Network700.node150 	discovery_latency 	3768
scalar Network700.node150 	number_of_desired_resources 	20
scalar Network700.node150 	query_homogenity_rate 	33.333333333333
scalar Network700.node150 	qrecord_time 	66767.272147719
scalar Network700.node150 	discovery_resolution_rate 	66.666666666667
scalar Network700.node150 	rate_of_requesters 	1
scalar Network700.node150 	number_of_resources 	38500
scalar Network700.node150 	time_period 	9
scalar Network700.node150 	number_of_messages 	14
scalar Network700.node150 	discovery_latency 	3852
scalar Network700.node150 	number_of_desired_resources 	20
scalar Network700.node150 	query_homogenity_rate 	33.333333333333
scalar Network700.node150 	qrecord_time 	69493.966173679
scalar Network700.node150 	discovery_resolution_rate 	66.666666666667
scalar Network700.node150 	rate_of_requesters 	1
scalar Network700.node150 	number_of_resources 	38500
scalar Network700.node150 	time_period 	10
scalar Network700.node150 	number_of_messages 	14
scalar Network700.node150 	discovery_latency 	3588
scalar Network700.node150 	number_of_desired_resources 	20
scalar Network700.node150 	query_homogenity_rate 	33.333333333333
scalar Network700.node150 	qrecord_time 	70177.40910274
scalar Network700.node150 	discovery_resolution_rate 	66.666666666667
scalar Network700.node40 	rate_of_requesters 	1
scalar Network700.node40 	number_of_resources 	38500
scalar Network700.node40 	time_period 	9
scalar Network700.node40 	number_of_messages 	14
scalar Network700.node40 	discovery_latency 	3600
scalar Network700.node40 	number_of_desired_resources 	20
scalar Network700.node40 	query_homogenity_rate 	33.333333333333
scalar Network700.node40 	qrecord_time 	70674.376796227
scalar Network700.node40 	discovery_resolution_rate 	66.666666666667
scalar Network700.node40 	rate_of_requesters 	1
scalar Network700.node40 	number_of_resources 	38500
scalar Network700.node40 	time_period 	10
scalar Network700.node40 	number_of_messages 	30
scalar Network700.node40 	discovery_latency 	3912
scalar Network700.node40 	number_of_desired_resources 	20
scalar Network700.node40 	query_homogenity_rate 	33.333333333333
scalar Network700.node40 	qrecord_time 	75202.743130444
scalar Network700.node40 	discovery_resolution_rate 	66.666666666667
