version 2
run net800-0-20150624-01:44:42-24777
attr as 1
attr configname net800
attr datetime 20150624-01:44:42
attr dnor 20
attr experiment net800
attr inifile omnetpp.ini
attr iterationvars "$rhdrq=3, $dnor=20, $as=1"
attr iterationvars2 "$rhdrq=3, $dnor=20, $as=1, $repetition=0"
attr measurement "$rhdrq=3, $dnor=20, $as=1"
attr network Network800
attr processid 24777
attr repetition 0
attr replication #0
attr resultdir results
attr rhdrq 3
attr runnumber 0
attr seedset 0

scalar . 	as 	1
scalar . 	dnor 	20
scalar . 	rhdrq 	3
scalar Network800.node200 	rate_of_requesters 	1
scalar Network800.node200 	number_of_resources 	44000
scalar Network800.node200 	time_period 	1
scalar Network800.node200 	number_of_messages 	16
scalar Network800.node200 	discovery_latency 	4608
scalar Network800.node200 	number_of_desired_resources 	20
scalar Network800.node200 	query_homogenity_rate 	33.333333333333
scalar Network800.node200 	qrecord_time 	9364
scalar Network800.node200 	discovery_resolution_rate 	66.666666666667
scalar Network800.node660 	rate_of_requesters 	1
scalar Network800.node660 	number_of_resources 	44000
scalar Network800.node660 	time_period 	1
scalar Network800.node660 	number_of_messages 	72
scalar Network800.node660 	discovery_latency 	4680
scalar Network800.node660 	number_of_desired_resources 	20
scalar Network800.node660 	query_homogenity_rate 	33.333333333333
scalar Network800.node660 	qrecord_time 	9394
scalar Network800.node660 	discovery_resolution_rate 	66.666666666667
scalar Network800.node740 	rate_of_requesters 	1
scalar Network800.node740 	number_of_resources 	44000
scalar Network800.node740 	time_period 	1
scalar Network800.node740 	number_of_messages 	11
scalar Network800.node740 	discovery_latency 	4692
scalar Network800.node740 	number_of_desired_resources 	20
scalar Network800.node740 	query_homogenity_rate 	33.333333333333
scalar Network800.node740 	qrecord_time 	9400
scalar Network800.node740 	discovery_resolution_rate 	66.666666666667
scalar Network800.node130 	rate_of_requesters 	1
scalar Network800.node130 	number_of_resources 	44000
scalar Network800.node130 	time_period 	1
scalar Network800.node130 	number_of_messages 	19
scalar Network800.node130 	discovery_latency 	4716
scalar Network800.node130 	number_of_desired_resources 	20
scalar Network800.node130 	query_homogenity_rate 	33.333333333333
scalar Network800.node130 	qrecord_time 	9490
scalar Network800.node130 	discovery_resolution_rate 	66.666666666667
scalar Network800.node90 	rate_of_requesters 	1
scalar Network800.node90 	number_of_resources 	44000
scalar Network800.node90 	time_period 	1
scalar Network800.node90 	number_of_messages 	20
scalar Network800.node90 	discovery_latency 	4752
scalar Network800.node90 	number_of_desired_resources 	20
scalar Network800.node90 	query_homogenity_rate 	33.333333333333
scalar Network800.node90 	qrecord_time 	9502
scalar Network800.node90 	discovery_resolution_rate 	66.666666666667
scalar Network800.node560 	rate_of_requesters 	1
scalar Network800.node560 	number_of_resources 	44000
scalar Network800.node560 	time_period 	1
scalar Network800.node560 	number_of_messages 	20
scalar Network800.node560 	discovery_latency 	4788
scalar Network800.node560 	number_of_desired_resources 	20
scalar Network800.node560 	query_homogenity_rate 	33.333333333333
scalar Network800.node560 	qrecord_time 	9508
scalar Network800.node560 	discovery_resolution_rate 	66.666666666667
scalar Network800.node160 	rate_of_requesters 	1
scalar Network800.node160 	number_of_resources 	44000
scalar Network800.node160 	time_period 	1
scalar Network800.node160 	number_of_messages 	18
scalar Network800.node160 	discovery_latency 	4800
scalar Network800.node160 	number_of_desired_resources 	20
scalar Network800.node160 	query_homogenity_rate 	33.333333333333
scalar Network800.node160 	qrecord_time 	9514
scalar Network800.node160 	discovery_resolution_rate 	66.666666666667
scalar Network800.node450 	rate_of_requesters 	1
scalar Network800.node450 	number_of_resources 	44000
scalar Network800.node450 	time_period 	1
scalar Network800.node450 	number_of_messages 	30
scalar Network800.node450 	discovery_latency 	4788
scalar Network800.node450 	number_of_desired_resources 	20
scalar Network800.node450 	query_homogenity_rate 	33.333333333333
scalar Network800.node450 	qrecord_time 	9526
scalar Network800.node450 	discovery_resolution_rate 	66.666666666667
scalar Network800.node670 	rate_of_requesters 	1
scalar Network800.node670 	number_of_resources 	44000
scalar Network800.node670 	time_period 	1
scalar Network800.node670 	number_of_messages 	18
scalar Network800.node670 	discovery_latency 	4818
scalar Network800.node670 	number_of_desired_resources 	20
scalar Network800.node670 	query_homogenity_rate 	33.333333333333
scalar Network800.node670 	qrecord_time 	9568
scalar Network800.node670 	discovery_resolution_rate 	33.333333333333
scalar Network800.node690 	rate_of_requesters 	1
scalar Network800.node690 	number_of_resources 	44000
scalar Network800.node690 	time_period 	1
scalar Network800.node690 	number_of_messages 	21
scalar Network800.node690 	discovery_latency 	4680
scalar Network800.node690 	number_of_desired_resources 	20
scalar Network800.node690 	query_homogenity_rate 	33.333333333333
scalar Network800.node690 	qrecord_time 	9574
scalar Network800.node690 	discovery_resolution_rate 	66.666666666667
scalar Network800.node460 	rate_of_requesters 	1
scalar Network800.node460 	number_of_resources 	44000
scalar Network800.node460 	time_period 	1
scalar Network800.node460 	number_of_messages 	60
scalar Network800.node460 	discovery_latency 	4860
scalar Network800.node460 	number_of_desired_resources 	20
scalar Network800.node460 	query_homogenity_rate 	33.333333333333
scalar Network800.node460 	qrecord_time 	9598
scalar Network800.node460 	discovery_resolution_rate 	66.666666666667
scalar Network800.node340 	rate_of_requesters 	1
scalar Network800.node340 	number_of_resources 	44000
scalar Network800.node340 	time_period 	1
scalar Network800.node340 	number_of_messages 	5
scalar Network800.node340 	discovery_latency 	4938
scalar Network800.node340 	number_of_desired_resources 	20
scalar Network800.node340 	query_homogenity_rate 	33.333333333333
scalar Network800.node340 	qrecord_time 	9604
scalar Network800.node340 	discovery_resolution_rate 	33.333333333333
scalar Network800.node440 	rate_of_requesters 	1
scalar Network800.node440 	number_of_resources 	44000
scalar Network800.node440 	time_period 	1
scalar Network800.node440 	number_of_messages 	11
scalar Network800.node440 	discovery_latency 	4878
scalar Network800.node440 	number_of_desired_resources 	20
scalar Network800.node440 	query_homogenity_rate 	33.333333333333
scalar Network800.node440 	qrecord_time 	9604
scalar Network800.node440 	discovery_resolution_rate 	33.333333333333
scalar Network800.node700 	rate_of_requesters 	1
scalar Network800.node700 	number_of_resources 	44000
scalar Network800.node700 	time_period 	1
scalar Network800.node700 	number_of_messages 	8
scalar Network800.node700 	discovery_latency 	4890
scalar Network800.node700 	number_of_desired_resources 	20
scalar Network800.node700 	query_homogenity_rate 	33.333333333333
scalar Network800.node700 	qrecord_time 	9604
scalar Network800.node700 	discovery_resolution_rate 	33.333333333333
scalar Network800.node290 	rate_of_requesters 	1
scalar Network800.node290 	number_of_resources 	44000
scalar Network800.node290 	time_period 	1
scalar Network800.node290 	number_of_messages 	23
scalar Network800.node290 	discovery_latency 	4836
scalar Network800.node290 	number_of_desired_resources 	20
scalar Network800.node290 	query_homogenity_rate 	33.333333333333
scalar Network800.node290 	qrecord_time 	9616
scalar Network800.node290 	discovery_resolution_rate 	66.666666666667
scalar Network800.node210 	rate_of_requesters 	1
scalar Network800.node210 	number_of_resources 	44000
scalar Network800.node210 	time_period 	1
scalar Network800.node210 	number_of_messages 	5
scalar Network800.node210 	discovery_latency 	4902
scalar Network800.node210 	number_of_desired_resources 	20
scalar Network800.node210 	query_homogenity_rate 	33.333333333333
scalar Network800.node210 	qrecord_time 	9640
scalar Network800.node210 	discovery_resolution_rate 	33.333333333333
scalar Network800.node600 	rate_of_requesters 	1
scalar Network800.node600 	number_of_resources 	44000
scalar Network800.node600 	time_period 	1
scalar Network800.node600 	number_of_messages 	4
scalar Network800.node600 	discovery_latency 	4986
scalar Network800.node600 	number_of_desired_resources 	20
scalar Network800.node600 	query_homogenity_rate 	33.333333333333
scalar Network800.node600 	qrecord_time 	9658
scalar Network800.node600 	discovery_resolution_rate 	33.333333333333
scalar Network800.node250 	rate_of_requesters 	1
scalar Network800.node250 	number_of_resources 	44000
scalar Network800.node250 	time_period 	1
scalar Network800.node250 	number_of_messages 	8
scalar Network800.node250 	discovery_latency 	4914
scalar Network800.node250 	number_of_desired_resources 	20
scalar Network800.node250 	query_homogenity_rate 	33.333333333333
scalar Network800.node250 	qrecord_time 	9664
scalar Network800.node250 	discovery_resolution_rate 	33.333333333333
scalar Network800.node720 	rate_of_requesters 	1
scalar Network800.node720 	number_of_resources 	44000
scalar Network800.node720 	time_period 	1
scalar Network800.node720 	number_of_messages 	14
scalar Network800.node720 	discovery_latency 	4962
scalar Network800.node720 	number_of_desired_resources 	20
scalar Network800.node720 	query_homogenity_rate 	33.333333333333
scalar Network800.node720 	qrecord_time 	9670
scalar Network800.node720 	discovery_resolution_rate 	33.333333333333
scalar Network800.node620 	rate_of_requesters 	1
scalar Network800.node620 	number_of_resources 	44000
scalar Network800.node620 	time_period 	1
scalar Network800.node620 	number_of_messages 	51
scalar Network800.node620 	discovery_latency 	4938
scalar Network800.node620 	number_of_desired_resources 	20
scalar Network800.node620 	query_homogenity_rate 	33.333333333333
scalar Network800.node620 	qrecord_time 	9694
scalar Network800.node620 	discovery_resolution_rate 	33.333333333333
scalar Network800.node350 	rate_of_requesters 	1
scalar Network800.node350 	number_of_resources 	44000
scalar Network800.node350 	time_period 	1
scalar Network800.node350 	number_of_messages 	10
scalar Network800.node350 	discovery_latency 	4986
scalar Network800.node350 	number_of_desired_resources 	20
scalar Network800.node350 	query_homogenity_rate 	33.333333333333
scalar Network800.node350 	qrecord_time 	9700
scalar Network800.node350 	discovery_resolution_rate 	33.333333333333
scalar Network800.node490 	rate_of_requesters 	1
scalar Network800.node490 	number_of_resources 	44000
scalar Network800.node490 	time_period 	1
scalar Network800.node490 	number_of_messages 	13
scalar Network800.node490 	discovery_latency 	4914
scalar Network800.node490 	number_of_desired_resources 	20
scalar Network800.node490 	query_homogenity_rate 	33.333333333333
scalar Network800.node490 	qrecord_time 	9706
scalar Network800.node490 	discovery_resolution_rate 	33.333333333333
scalar Network800.node110 	rate_of_requesters 	1
scalar Network800.node110 	number_of_resources 	44000
scalar Network800.node110 	time_period 	1
scalar Network800.node110 	number_of_messages 	23
scalar Network800.node110 	discovery_latency 	4932
scalar Network800.node110 	number_of_desired_resources 	20
scalar Network800.node110 	query_homogenity_rate 	33.333333333333
scalar Network800.node110 	qrecord_time 	9712
scalar Network800.node110 	discovery_resolution_rate 	66.666666666667
scalar Network800.node230 	rate_of_requesters 	1
scalar Network800.node230 	number_of_resources 	44000
scalar Network800.node230 	time_period 	1
scalar Network800.node230 	number_of_messages 	23
scalar Network800.node230 	discovery_latency 	5022
scalar Network800.node230 	number_of_desired_resources 	20
scalar Network800.node230 	query_homogenity_rate 	33.333333333333
scalar Network800.node230 	qrecord_time 	9712
scalar Network800.node230 	discovery_resolution_rate 	66.666666666667
scalar Network800.node640 	rate_of_requesters 	1
scalar Network800.node640 	number_of_resources 	44000
scalar Network800.node640 	time_period 	1
scalar Network800.node640 	number_of_messages 	18
scalar Network800.node640 	discovery_latency 	4974
scalar Network800.node640 	number_of_desired_resources 	20
scalar Network800.node640 	query_homogenity_rate 	33.333333333333
scalar Network800.node640 	qrecord_time 	9730
scalar Network800.node640 	discovery_resolution_rate 	66.666666666667
scalar Network800.node590 	rate_of_requesters 	1
scalar Network800.node590 	number_of_resources 	44000
scalar Network800.node590 	time_period 	1
scalar Network800.node590 	number_of_messages 	63
scalar Network800.node590 	discovery_latency 	4986
scalar Network800.node590 	number_of_desired_resources 	20
scalar Network800.node590 	query_homogenity_rate 	33.333333333333
scalar Network800.node590 	qrecord_time 	9748
scalar Network800.node590 	discovery_resolution_rate 	33.333333333333
scalar Network800.node360 	rate_of_requesters 	1
scalar Network800.node360 	number_of_resources 	44000
scalar Network800.node360 	time_period 	1
scalar Network800.node360 	number_of_messages 	8
scalar Network800.node360 	discovery_latency 	5094
scalar Network800.node360 	number_of_desired_resources 	20
scalar Network800.node360 	query_homogenity_rate 	33.333333333333
scalar Network800.node360 	qrecord_time 	9760
scalar Network800.node360 	discovery_resolution_rate 	33.333333333333
scalar Network800.node120 	rate_of_requesters 	1
scalar Network800.node120 	number_of_resources 	44000
scalar Network800.node120 	time_period 	1
scalar Network800.node120 	number_of_messages 	14
scalar Network800.node120 	discovery_latency 	5040
scalar Network800.node120 	number_of_desired_resources 	20
scalar Network800.node120 	query_homogenity_rate 	33.333333333333
scalar Network800.node120 	qrecord_time 	9760
scalar Network800.node120 	discovery_resolution_rate 	66.666666666667
scalar Network800.node0 	rate_of_requesters 	1
scalar Network800.node0 	number_of_resources 	44000
scalar Network800.node0 	time_period 	1
scalar Network800.node0 	number_of_messages 	16
scalar Network800.node0 	discovery_latency 	4980
scalar Network800.node0 	number_of_desired_resources 	20
scalar Network800.node0 	query_homogenity_rate 	33.333333333333
scalar Network800.node0 	qrecord_time 	9772
scalar Network800.node0 	discovery_resolution_rate 	66.666666666667
scalar Network800.node60 	rate_of_requesters 	1
scalar Network800.node60 	number_of_resources 	44000
scalar Network800.node60 	time_period 	1
scalar Network800.node60 	number_of_messages 	76
scalar Network800.node60 	discovery_latency 	5046
scalar Network800.node60 	number_of_desired_resources 	20
scalar Network800.node60 	query_homogenity_rate 	33.333333333333
scalar Network800.node60 	qrecord_time 	9778
scalar Network800.node60 	discovery_resolution_rate 	66.666666666667
scalar Network800.node790 	rate_of_requesters 	1
scalar Network800.node790 	number_of_resources 	44000
scalar Network800.node790 	time_period 	1
scalar Network800.node790 	number_of_messages 	22
scalar Network800.node790 	discovery_latency 	5016
scalar Network800.node790 	number_of_desired_resources 	20
scalar Network800.node790 	query_homogenity_rate 	33.333333333333
scalar Network800.node790 	qrecord_time 	9784
scalar Network800.node790 	discovery_resolution_rate 	33.333333333333
scalar Network800.node270 	rate_of_requesters 	1
scalar Network800.node270 	number_of_resources 	44000
scalar Network800.node270 	time_period 	1
scalar Network800.node270 	number_of_messages 	221
scalar Network800.node270 	discovery_latency 	5142
scalar Network800.node270 	number_of_desired_resources 	20
scalar Network800.node270 	query_homogenity_rate 	33.333333333333
scalar Network800.node270 	qrecord_time 	9784
scalar Network800.node270 	discovery_resolution_rate 	50
scalar Network800.node40 	rate_of_requesters 	1
scalar Network800.node40 	number_of_resources 	44000
scalar Network800.node40 	time_period 	1
scalar Network800.node40 	number_of_messages 	8
scalar Network800.node40 	discovery_latency 	5070
scalar Network800.node40 	number_of_desired_resources 	20
scalar Network800.node40 	query_homogenity_rate 	33.333333333333
scalar Network800.node40 	qrecord_time 	9838
scalar Network800.node40 	discovery_resolution_rate 	33.333333333333
scalar Network800.node320 	rate_of_requesters 	1
scalar Network800.node320 	number_of_resources 	44000
scalar Network800.node320 	time_period 	1
scalar Network800.node320 	number_of_messages 	11
scalar Network800.node320 	discovery_latency 	5154
scalar Network800.node320 	number_of_desired_resources 	20
scalar Network800.node320 	query_homogenity_rate 	33.333333333333
scalar Network800.node320 	qrecord_time 	9844
scalar Network800.node320 	discovery_resolution_rate 	33.333333333333
scalar Network800.node50 	rate_of_requesters 	1
scalar Network800.node50 	number_of_resources 	44000
scalar Network800.node50 	time_period 	1
scalar Network800.node50 	number_of_messages 	5
scalar Network800.node50 	discovery_latency 	5058
scalar Network800.node50 	number_of_desired_resources 	20
scalar Network800.node50 	query_homogenity_rate 	33.333333333333
scalar Network800.node50 	qrecord_time 	9850
scalar Network800.node50 	discovery_resolution_rate 	33.333333333333
scalar Network800.node300 	rate_of_requesters 	1
scalar Network800.node300 	number_of_resources 	44000
scalar Network800.node300 	time_period 	1
scalar Network800.node300 	number_of_messages 	245
scalar Network800.node300 	discovery_latency 	5160
scalar Network800.node300 	number_of_desired_resources 	20
scalar Network800.node300 	query_homogenity_rate 	33.333333333333
scalar Network800.node300 	qrecord_time 	9850
scalar Network800.node300 	discovery_resolution_rate 	50
scalar Network800.node170 	rate_of_requesters 	1
scalar Network800.node170 	number_of_resources 	44000
scalar Network800.node170 	time_period 	1
scalar Network800.node170 	number_of_messages 	15
scalar Network800.node170 	discovery_latency 	5154
scalar Network800.node170 	number_of_desired_resources 	20
scalar Network800.node170 	query_homogenity_rate 	33.333333333333
scalar Network800.node170 	qrecord_time 	9850
scalar Network800.node170 	discovery_resolution_rate 	33.333333333333
scalar Network800.node30 	rate_of_requesters 	1
scalar Network800.node30 	number_of_resources 	44000
scalar Network800.node30 	time_period 	1
scalar Network800.node30 	number_of_messages 	6
scalar Network800.node30 	discovery_latency 	5106
scalar Network800.node30 	number_of_desired_resources 	20
scalar Network800.node30 	query_homogenity_rate 	33.333333333333
scalar Network800.node30 	qrecord_time 	9862
scalar Network800.node30 	discovery_resolution_rate 	33.333333333333
scalar Network800.node680 	rate_of_requesters 	1
scalar Network800.node680 	number_of_resources 	44000
scalar Network800.node680 	time_period 	1
scalar Network800.node680 	number_of_messages 	4
scalar Network800.node680 	discovery_latency 	5112
scalar Network800.node680 	number_of_desired_resources 	20
scalar Network800.node680 	query_homogenity_rate 	33.333333333333
scalar Network800.node680 	qrecord_time 	9862
scalar Network800.node680 	discovery_resolution_rate 	33.333333333333
scalar Network800.node70 	rate_of_requesters 	1
scalar Network800.node70 	number_of_resources 	44000
scalar Network800.node70 	time_period 	1
scalar Network800.node70 	number_of_messages 	11
scalar Network800.node70 	discovery_latency 	5196
scalar Network800.node70 	number_of_desired_resources 	20
scalar Network800.node70 	query_homogenity_rate 	33.333333333333
scalar Network800.node70 	qrecord_time 	9862
scalar Network800.node70 	discovery_resolution_rate 	33.333333333333
scalar Network800.node630 	rate_of_requesters 	1
scalar Network800.node630 	number_of_resources 	44000
scalar Network800.node630 	time_period 	1
scalar Network800.node630 	number_of_messages 	10
scalar Network800.node630 	discovery_latency 	5118
scalar Network800.node630 	number_of_desired_resources 	20
scalar Network800.node630 	query_homogenity_rate 	33.333333333333
scalar Network800.node630 	qrecord_time 	9868
scalar Network800.node630 	discovery_resolution_rate 	33.333333333333
scalar Network800.node780 	rate_of_requesters 	1
scalar Network800.node780 	number_of_resources 	44000
scalar Network800.node780 	time_period 	1
scalar Network800.node780 	number_of_messages 	2
scalar Network800.node780 	discovery_latency 	5112
scalar Network800.node780 	number_of_desired_resources 	20
scalar Network800.node780 	query_homogenity_rate 	33.333333333333
scalar Network800.node780 	qrecord_time 	9868
scalar Network800.node780 	discovery_resolution_rate 	0
scalar Network800.node370 	rate_of_requesters 	1
scalar Network800.node370 	number_of_resources 	44000
scalar Network800.node370 	time_period 	1
scalar Network800.node370 	number_of_messages 	2
scalar Network800.node370 	discovery_latency 	5124
scalar Network800.node370 	number_of_desired_resources 	20
scalar Network800.node370 	query_homogenity_rate 	33.333333333333
scalar Network800.node370 	qrecord_time 	9874
scalar Network800.node370 	discovery_resolution_rate 	0
scalar Network800.node280 	rate_of_requesters 	1
scalar Network800.node280 	number_of_resources 	44000
scalar Network800.node280 	time_period 	1
scalar Network800.node280 	number_of_messages 	2
scalar Network800.node280 	discovery_latency 	5148
scalar Network800.node280 	number_of_desired_resources 	20
scalar Network800.node280 	query_homogenity_rate 	33.333333333333
scalar Network800.node280 	qrecord_time 	9880
scalar Network800.node280 	discovery_resolution_rate 	0
scalar Network800.node100 	rate_of_requesters 	1
scalar Network800.node100 	number_of_resources 	44000
scalar Network800.node100 	time_period 	1
scalar Network800.node100 	number_of_messages 	2
scalar Network800.node100 	discovery_latency 	5178
scalar Network800.node100 	number_of_desired_resources 	20
scalar Network800.node100 	query_homogenity_rate 	33.333333333333
scalar Network800.node100 	qrecord_time 	9892
scalar Network800.node100 	discovery_resolution_rate 	0
scalar Network800.node400 	rate_of_requesters 	1
scalar Network800.node400 	number_of_resources 	44000
scalar Network800.node400 	time_period 	1
scalar Network800.node400 	number_of_messages 	12
scalar Network800.node400 	discovery_latency 	5244
scalar Network800.node400 	number_of_desired_resources 	20
scalar Network800.node400 	query_homogenity_rate 	33.333333333333
scalar Network800.node400 	qrecord_time 	9910
scalar Network800.node400 	discovery_resolution_rate 	33.333333333333
scalar Network800.node330 	rate_of_requesters 	1
scalar Network800.node330 	number_of_resources 	44000
scalar Network800.node330 	time_period 	1
scalar Network800.node330 	number_of_messages 	254
scalar Network800.node330 	discovery_latency 	5232
scalar Network800.node330 	number_of_desired_resources 	20
scalar Network800.node330 	query_homogenity_rate 	33.333333333333
scalar Network800.node330 	qrecord_time 	9916
scalar Network800.node330 	discovery_resolution_rate 	16.666666666667
scalar Network800.node390 	rate_of_requesters 	1
scalar Network800.node390 	number_of_resources 	44000
scalar Network800.node390 	time_period 	1
scalar Network800.node390 	number_of_messages 	6
scalar Network800.node390 	discovery_latency 	5178
scalar Network800.node390 	number_of_desired_resources 	20
scalar Network800.node390 	query_homogenity_rate 	33.333333333333
scalar Network800.node390 	qrecord_time 	9934
scalar Network800.node390 	discovery_resolution_rate 	33.333333333333
scalar Network800.node760 	rate_of_requesters 	1
scalar Network800.node760 	number_of_resources 	44000
scalar Network800.node760 	time_period 	1
scalar Network800.node760 	number_of_messages 	6
scalar Network800.node760 	discovery_latency 	5190
scalar Network800.node760 	number_of_desired_resources 	20
scalar Network800.node760 	query_homogenity_rate 	33.333333333333
scalar Network800.node760 	qrecord_time 	9946
scalar Network800.node760 	discovery_resolution_rate 	33.333333333333
scalar Network800.node770 	rate_of_requesters 	1
scalar Network800.node770 	number_of_resources 	44000
scalar Network800.node770 	time_period 	1
scalar Network800.node770 	number_of_messages 	2
scalar Network800.node770 	discovery_latency 	5112
scalar Network800.node770 	number_of_desired_resources 	20
scalar Network800.node770 	query_homogenity_rate 	33.333333333333
scalar Network800.node770 	qrecord_time 	9946
scalar Network800.node770 	discovery_resolution_rate 	0
scalar Network800.node550 	rate_of_requesters 	1
scalar Network800.node550 	number_of_resources 	44000
scalar Network800.node550 	time_period 	1
scalar Network800.node550 	number_of_messages 	7
scalar Network800.node550 	discovery_latency 	5256
scalar Network800.node550 	number_of_desired_resources 	20
scalar Network800.node550 	query_homogenity_rate 	33.333333333333
scalar Network800.node550 	qrecord_time 	9946
scalar Network800.node550 	discovery_resolution_rate 	33.333333333333
scalar Network800.node150 	rate_of_requesters 	1
scalar Network800.node150 	number_of_resources 	44000
scalar Network800.node150 	time_period 	1
scalar Network800.node150 	number_of_messages 	10
scalar Network800.node150 	discovery_latency 	5172
scalar Network800.node150 	number_of_desired_resources 	20
scalar Network800.node150 	query_homogenity_rate 	33.333333333333
scalar Network800.node150 	qrecord_time 	9946
scalar Network800.node150 	discovery_resolution_rate 	33.333333333333
scalar Network800.node750 	rate_of_requesters 	1
scalar Network800.node750 	number_of_resources 	44000
scalar Network800.node750 	time_period 	1
scalar Network800.node750 	number_of_messages 	7
scalar Network800.node750 	discovery_latency 	5232
scalar Network800.node750 	number_of_desired_resources 	20
scalar Network800.node750 	query_homogenity_rate 	33.333333333333
scalar Network800.node750 	qrecord_time 	9964
scalar Network800.node750 	discovery_resolution_rate 	33.333333333333
scalar Network800.node500 	rate_of_requesters 	1
scalar Network800.node500 	number_of_resources 	44000
scalar Network800.node500 	time_period 	1
scalar Network800.node500 	number_of_messages 	2
scalar Network800.node500 	discovery_latency 	5196
scalar Network800.node500 	number_of_desired_resources 	20
scalar Network800.node500 	query_homogenity_rate 	33.333333333333
scalar Network800.node500 	qrecord_time 	9970
scalar Network800.node500 	discovery_resolution_rate 	0
scalar Network800.node10 	rate_of_requesters 	1
scalar Network800.node10 	number_of_resources 	44000
scalar Network800.node10 	time_period 	1
scalar Network800.node10 	number_of_messages 	230
scalar Network800.node10 	discovery_latency 	5226
scalar Network800.node10 	number_of_desired_resources 	20
scalar Network800.node10 	query_homogenity_rate 	33.333333333333
scalar Network800.node10 	qrecord_time 	9970
scalar Network800.node10 	discovery_resolution_rate 	50
scalar Network800.node20 	rate_of_requesters 	1
scalar Network800.node20 	number_of_resources 	44000
scalar Network800.node20 	time_period 	1
scalar Network800.node20 	number_of_messages 	228
scalar Network800.node20 	discovery_latency 	5172
scalar Network800.node20 	number_of_desired_resources 	20
scalar Network800.node20 	query_homogenity_rate 	33.333333333333
scalar Network800.node20 	qrecord_time 	9982
scalar Network800.node20 	discovery_resolution_rate 	16.666666666667
scalar Network800.node310 	rate_of_requesters 	1
scalar Network800.node310 	number_of_resources 	44000
scalar Network800.node310 	time_period 	1
scalar Network800.node310 	number_of_messages 	13
scalar Network800.node310 	discovery_latency 	5196
scalar Network800.node310 	number_of_desired_resources 	20
scalar Network800.node310 	query_homogenity_rate 	33.333333333333
scalar Network800.node310 	qrecord_time 	9988
scalar Network800.node310 	discovery_resolution_rate 	33.333333333333
scalar Network800.node510 	rate_of_requesters 	1
scalar Network800.node510 	number_of_resources 	44000
scalar Network800.node510 	time_period 	1
scalar Network800.node510 	number_of_messages 	228
scalar Network800.node510 	discovery_latency 	5244
scalar Network800.node510 	number_of_desired_resources 	20
scalar Network800.node510 	query_homogenity_rate 	33.333333333333
scalar Network800.node510 	qrecord_time 	9994
scalar Network800.node510 	discovery_resolution_rate 	16.666666666667
scalar Network800.node430 	rate_of_requesters 	1
scalar Network800.node430 	number_of_resources 	44000
scalar Network800.node430 	time_period 	1
scalar Network800.node430 	number_of_messages 	2
scalar Network800.node430 	discovery_latency 	5256
scalar Network800.node430 	number_of_desired_resources 	20
scalar Network800.node430 	query_homogenity_rate 	33.333333333333
scalar Network800.node430 	qrecord_time 	10012
scalar Network800.node430 	discovery_resolution_rate 	0
scalar Network800.node530 	rate_of_requesters 	1
scalar Network800.node530 	number_of_resources 	44000
scalar Network800.node530 	time_period 	1
scalar Network800.node530 	number_of_messages 	2
scalar Network800.node530 	discovery_latency 	5160
scalar Network800.node530 	number_of_desired_resources 	20
scalar Network800.node530 	query_homogenity_rate 	33.333333333333
scalar Network800.node530 	qrecord_time 	10024
scalar Network800.node530 	discovery_resolution_rate 	0
scalar Network800.node140 	rate_of_requesters 	1
scalar Network800.node140 	number_of_resources 	44000
scalar Network800.node140 	time_period 	1
scalar Network800.node140 	number_of_messages 	2
scalar Network800.node140 	discovery_latency 	5268
scalar Network800.node140 	number_of_desired_resources 	20
scalar Network800.node140 	query_homogenity_rate 	33.333333333333
scalar Network800.node140 	qrecord_time 	10036
scalar Network800.node140 	discovery_resolution_rate 	0
scalar Network800.node420 	rate_of_requesters 	1
scalar Network800.node420 	number_of_resources 	44000
scalar Network800.node420 	time_period 	1
scalar Network800.node420 	number_of_messages 	6
scalar Network800.node420 	discovery_latency 	5292
scalar Network800.node420 	number_of_desired_resources 	20
scalar Network800.node420 	query_homogenity_rate 	33.333333333333
scalar Network800.node420 	qrecord_time 	10042
scalar Network800.node420 	discovery_resolution_rate 	33.333333333333
scalar Network800.node570 	rate_of_requesters 	1
scalar Network800.node570 	number_of_resources 	44000
scalar Network800.node570 	time_period 	1
scalar Network800.node570 	number_of_messages 	2
scalar Network800.node570 	discovery_latency 	5250
scalar Network800.node570 	number_of_desired_resources 	20
scalar Network800.node570 	query_homogenity_rate 	33.333333333333
scalar Network800.node570 	qrecord_time 	10042
scalar Network800.node570 	discovery_resolution_rate 	0
scalar Network800.node730 	rate_of_requesters 	1
scalar Network800.node730 	number_of_resources 	44000
scalar Network800.node730 	time_period 	1
scalar Network800.node730 	number_of_messages 	11
scalar Network800.node730 	discovery_latency 	5316
scalar Network800.node730 	number_of_desired_resources 	20
scalar Network800.node730 	query_homogenity_rate 	33.333333333333
scalar Network800.node730 	qrecord_time 	10048
scalar Network800.node730 	discovery_resolution_rate 	33.333333333333
scalar Network800.node380 	rate_of_requesters 	1
scalar Network800.node380 	number_of_resources 	44000
scalar Network800.node380 	time_period 	1
scalar Network800.node380 	number_of_messages 	2
scalar Network800.node380 	discovery_latency 	5244
scalar Network800.node380 	number_of_desired_resources 	20
scalar Network800.node380 	query_homogenity_rate 	33.333333333333
scalar Network800.node380 	qrecord_time 	10054
scalar Network800.node380 	discovery_resolution_rate 	0
scalar Network800.node180 	rate_of_requesters 	1
scalar Network800.node180 	number_of_resources 	44000
scalar Network800.node180 	time_period 	1
scalar Network800.node180 	number_of_messages 	2
scalar Network800.node180 	discovery_latency 	5340
scalar Network800.node180 	number_of_desired_resources 	20
scalar Network800.node180 	query_homogenity_rate 	33.333333333333
scalar Network800.node180 	qrecord_time 	10096
scalar Network800.node180 	discovery_resolution_rate 	0
scalar Network800.node540 	rate_of_requesters 	1
scalar Network800.node540 	number_of_resources 	44000
scalar Network800.node540 	time_period 	1
scalar Network800.node540 	number_of_messages 	258
scalar Network800.node540 	discovery_latency 	5364
scalar Network800.node540 	number_of_desired_resources 	20
scalar Network800.node540 	query_homogenity_rate 	33.333333333333
scalar Network800.node540 	qrecord_time 	10096
scalar Network800.node540 	discovery_resolution_rate 	50
scalar Network800.node470 	rate_of_requesters 	1
scalar Network800.node470 	number_of_resources 	44000
scalar Network800.node470 	time_period 	1
scalar Network800.node470 	number_of_messages 	252
scalar Network800.node470 	discovery_latency 	5304
scalar Network800.node470 	number_of_desired_resources 	20
scalar Network800.node470 	query_homogenity_rate 	33.333333333333
scalar Network800.node470 	qrecord_time 	10096
scalar Network800.node470 	discovery_resolution_rate 	16.666666666667
scalar Network800.node580 	rate_of_requesters 	1
scalar Network800.node580 	number_of_resources 	44000
scalar Network800.node580 	time_period 	1
scalar Network800.node580 	number_of_messages 	2
scalar Network800.node580 	discovery_latency 	5328
scalar Network800.node580 	number_of_desired_resources 	20
scalar Network800.node580 	query_homogenity_rate 	33.333333333333
scalar Network800.node580 	qrecord_time 	10102
scalar Network800.node580 	discovery_resolution_rate 	0
scalar Network800.node480 	rate_of_requesters 	1
scalar Network800.node480 	number_of_resources 	44000
scalar Network800.node480 	time_period 	1
scalar Network800.node480 	number_of_messages 	2
scalar Network800.node480 	discovery_latency 	5352
scalar Network800.node480 	number_of_desired_resources 	20
scalar Network800.node480 	query_homogenity_rate 	33.333333333333
scalar Network800.node480 	qrecord_time 	10102
scalar Network800.node480 	discovery_resolution_rate 	0
scalar Network800.node300 	rate_of_requesters 	1
scalar Network800.node300 	number_of_resources 	44000
scalar Network800.node300 	time_period 	2
scalar Network800.node300 	number_of_messages 	2
scalar Network800.node300 	discovery_latency 	5220
scalar Network800.node300 	number_of_desired_resources 	20
scalar Network800.node300 	query_homogenity_rate 	33.333333333333
scalar Network800.node300 	qrecord_time 	10103.619460723
scalar Network800.node300 	discovery_resolution_rate 	0
scalar Network800.node260 	rate_of_requesters 	1
scalar Network800.node260 	number_of_resources 	44000
scalar Network800.node260 	time_period 	1
scalar Network800.node260 	number_of_messages 	2
scalar Network800.node260 	discovery_latency 	5376
scalar Network800.node260 	number_of_desired_resources 	20
scalar Network800.node260 	query_homogenity_rate 	33.333333333333
scalar Network800.node260 	qrecord_time 	10108
scalar Network800.node260 	discovery_resolution_rate 	0
scalar Network800.node220 	rate_of_requesters 	1
scalar Network800.node220 	number_of_resources 	44000
scalar Network800.node220 	time_period 	1
scalar Network800.node220 	number_of_messages 	273
scalar Network800.node220 	discovery_latency 	5412
scalar Network800.node220 	number_of_desired_resources 	20
scalar Network800.node220 	query_homogenity_rate 	33.333333333333
scalar Network800.node220 	qrecord_time 	10120
scalar Network800.node220 	discovery_resolution_rate 	83.333333333333
scalar Network800.node240 	rate_of_requesters 	1
scalar Network800.node240 	number_of_resources 	44000
scalar Network800.node240 	time_period 	1
scalar Network800.node240 	number_of_messages 	2
scalar Network800.node240 	discovery_latency 	5340
scalar Network800.node240 	number_of_desired_resources 	20
scalar Network800.node240 	query_homogenity_rate 	33.333333333333
scalar Network800.node240 	qrecord_time 	10138
scalar Network800.node240 	discovery_resolution_rate 	0
scalar Network800.node170 	rate_of_requesters 	1
scalar Network800.node170 	number_of_resources 	44000
scalar Network800.node170 	time_period 	2
scalar Network800.node170 	number_of_messages 	0
scalar Network800.node170 	discovery_latency 	5232
scalar Network800.node170 	number_of_desired_resources 	20
scalar Network800.node170 	query_homogenity_rate 	33.333333333333
scalar Network800.node170 	qrecord_time 	10138.129877075
scalar Network800.node170 	discovery_resolution_rate 	0
scalar Network800.node190 	rate_of_requesters 	1
scalar Network800.node190 	number_of_resources 	44000
scalar Network800.node190 	time_period 	1
scalar Network800.node190 	number_of_messages 	4
scalar Network800.node190 	discovery_latency 	5412
scalar Network800.node190 	number_of_desired_resources 	20
scalar Network800.node190 	query_homogenity_rate 	33.333333333333
scalar Network800.node190 	qrecord_time 	10144
scalar Network800.node190 	discovery_resolution_rate 	33.333333333333
scalar Network800.node210 	rate_of_requesters 	1
scalar Network800.node210 	number_of_resources 	44000
scalar Network800.node210 	time_period 	2
scalar Network800.node210 	number_of_messages 	9
scalar Network800.node210 	discovery_latency 	5148
scalar Network800.node210 	number_of_desired_resources 	20
scalar Network800.node210 	query_homogenity_rate 	33.333333333333
scalar Network800.node210 	qrecord_time 	10146.551058574
scalar Network800.node210 	discovery_resolution_rate 	33.333333333333
scalar Network800.node370 	rate_of_requesters 	1
scalar Network800.node370 	number_of_resources 	44000
scalar Network800.node370 	time_period 	2
scalar Network800.node370 	number_of_messages 	2
scalar Network800.node370 	discovery_latency 	5232
scalar Network800.node370 	number_of_desired_resources 	20
scalar Network800.node370 	query_homogenity_rate 	33.333333333333
scalar Network800.node370 	qrecord_time 	10160.06196495
scalar Network800.node370 	discovery_resolution_rate 	0
scalar Network800.node790 	rate_of_requesters 	1
scalar Network800.node790 	number_of_resources 	44000
scalar Network800.node790 	time_period 	2
scalar Network800.node790 	number_of_messages 	14
scalar Network800.node790 	discovery_latency 	5340
scalar Network800.node790 	number_of_desired_resources 	20
scalar Network800.node790 	query_homogenity_rate 	33.333333333333
scalar Network800.node790 	qrecord_time 	10160.917749075
scalar Network800.node790 	discovery_resolution_rate 	33.333333333333
scalar Network800.node610 	rate_of_requesters 	1
scalar Network800.node610 	number_of_resources 	44000
scalar Network800.node610 	time_period 	1
scalar Network800.node610 	number_of_messages 	2
scalar Network800.node610 	discovery_latency 	5352
scalar Network800.node610 	number_of_desired_resources 	20
scalar Network800.node610 	query_homogenity_rate 	33.333333333333
scalar Network800.node610 	qrecord_time 	10162
scalar Network800.node610 	discovery_resolution_rate 	0
scalar Network800.node650 	rate_of_requesters 	1
scalar Network800.node650 	number_of_resources 	44000
scalar Network800.node650 	time_period 	1
scalar Network800.node650 	number_of_messages 	2
scalar Network800.node650 	discovery_latency 	5412
scalar Network800.node650 	number_of_desired_resources 	20
scalar Network800.node650 	query_homogenity_rate 	33.333333333333
scalar Network800.node650 	qrecord_time 	10168
scalar Network800.node650 	discovery_resolution_rate 	0
scalar Network800.node410 	rate_of_requesters 	1
scalar Network800.node410 	number_of_resources 	44000
scalar Network800.node410 	time_period 	1
scalar Network800.node410 	number_of_messages 	13
scalar Network800.node410 	discovery_latency 	5388
scalar Network800.node410 	number_of_desired_resources 	20
scalar Network800.node410 	query_homogenity_rate 	33.333333333333
scalar Network800.node410 	qrecord_time 	10180
scalar Network800.node410 	discovery_resolution_rate 	33.333333333333
scalar Network800.node710 	rate_of_requesters 	1
scalar Network800.node710 	number_of_resources 	44000
scalar Network800.node710 	time_period 	1
scalar Network800.node710 	number_of_messages 	2
scalar Network800.node710 	discovery_latency 	5376
scalar Network800.node710 	number_of_desired_resources 	20
scalar Network800.node710 	query_homogenity_rate 	33.333333333333
scalar Network800.node710 	qrecord_time 	10210
scalar Network800.node710 	discovery_resolution_rate 	0
scalar Network800.node260 	rate_of_requesters 	1
scalar Network800.node260 	number_of_resources 	44000
scalar Network800.node260 	time_period 	2
scalar Network800.node260 	number_of_messages 	2
scalar Network800.node260 	discovery_latency 	5328
scalar Network800.node260 	number_of_desired_resources 	20
scalar Network800.node260 	query_homogenity_rate 	33.333333333333
scalar Network800.node260 	qrecord_time 	10212.851384331
scalar Network800.node260 	discovery_resolution_rate 	0
scalar Network800.node520 	rate_of_requesters 	1
scalar Network800.node520 	number_of_resources 	44000
scalar Network800.node520 	time_period 	1
scalar Network800.node520 	number_of_messages 	2
scalar Network800.node520 	discovery_latency 	5436
scalar Network800.node520 	number_of_desired_resources 	20
scalar Network800.node520 	query_homogenity_rate 	33.333333333333
scalar Network800.node520 	qrecord_time 	10246
scalar Network800.node520 	discovery_resolution_rate 	0
scalar Network800.node80 	rate_of_requesters 	1
scalar Network800.node80 	number_of_resources 	44000
scalar Network800.node80 	time_period 	1
scalar Network800.node80 	number_of_messages 	254
scalar Network800.node80 	discovery_latency 	5484
scalar Network800.node80 	number_of_desired_resources 	20
scalar Network800.node80 	query_homogenity_rate 	33.333333333333
scalar Network800.node80 	qrecord_time 	10258
scalar Network800.node80 	discovery_resolution_rate 	16.666666666667
scalar Network800.node500 	rate_of_requesters 	1
scalar Network800.node500 	number_of_resources 	44000
scalar Network800.node500 	time_period 	2
scalar Network800.node500 	number_of_messages 	2
scalar Network800.node500 	discovery_latency 	5232
scalar Network800.node500 	number_of_desired_resources 	20
scalar Network800.node500 	query_homogenity_rate 	33.333333333333
scalar Network800.node500 	qrecord_time 	10307.632516751
scalar Network800.node500 	discovery_resolution_rate 	0
scalar Network800.node170 	rate_of_requesters 	1
scalar Network800.node170 	number_of_resources 	44000
scalar Network800.node170 	time_period 	3
scalar Network800.node170 	number_of_messages 	0
scalar Network800.node170 	discovery_latency 	5304
scalar Network800.node170 	number_of_desired_resources 	20
scalar Network800.node170 	query_homogenity_rate 	33.333333333333
scalar Network800.node170 	qrecord_time 	10341.693086348
scalar Network800.node170 	discovery_resolution_rate 	0
scalar Network800.node20 	rate_of_requesters 	1
scalar Network800.node20 	number_of_resources 	44000
scalar Network800.node20 	time_period 	2
scalar Network800.node20 	number_of_messages 	2
scalar Network800.node20 	discovery_latency 	5316
scalar Network800.node20 	number_of_desired_resources 	20
scalar Network800.node20 	query_homogenity_rate 	33.333333333333
scalar Network800.node20 	qrecord_time 	10346.262285376
scalar Network800.node20 	discovery_resolution_rate 	0
scalar Network800.node270 	rate_of_requesters 	1
scalar Network800.node270 	number_of_resources 	44000
scalar Network800.node270 	time_period 	2
scalar Network800.node270 	number_of_messages 	2
scalar Network800.node270 	discovery_latency 	5280
scalar Network800.node270 	number_of_desired_resources 	20
scalar Network800.node270 	query_homogenity_rate 	33.333333333333
scalar Network800.node270 	qrecord_time 	10468.84377407
scalar Network800.node270 	discovery_resolution_rate 	0
scalar Network800.node540 	rate_of_requesters 	1
scalar Network800.node540 	number_of_resources 	44000
scalar Network800.node540 	time_period 	2
scalar Network800.node540 	number_of_messages 	2
scalar Network800.node540 	discovery_latency 	5436
scalar Network800.node540 	number_of_desired_resources 	20
scalar Network800.node540 	query_homogenity_rate 	33.333333333333
scalar Network800.node540 	qrecord_time 	10511.751980006
scalar Network800.node540 	discovery_resolution_rate 	0
scalar Network800.node210 	rate_of_requesters 	1
scalar Network800.node210 	number_of_resources 	44000
scalar Network800.node210 	time_period 	3
scalar Network800.node210 	number_of_messages 	9
scalar Network800.node210 	discovery_latency 	5472
scalar Network800.node210 	number_of_desired_resources 	20
scalar Network800.node210 	query_homogenity_rate 	33.333333333333
scalar Network800.node210 	qrecord_time 	10538.093222233
scalar Network800.node210 	discovery_resolution_rate 	33.333333333333
scalar Network800.node730 	rate_of_requesters 	1
scalar Network800.node730 	number_of_resources 	44000
scalar Network800.node730 	time_period 	2
scalar Network800.node730 	number_of_messages 	2
scalar Network800.node730 	discovery_latency 	5316
scalar Network800.node730 	number_of_desired_resources 	20
scalar Network800.node730 	query_homogenity_rate 	33.333333333333
scalar Network800.node730 	qrecord_time 	10592.014148012
scalar Network800.node730 	discovery_resolution_rate 	0
scalar Network800.node230 	rate_of_requesters 	1
scalar Network800.node230 	number_of_resources 	44000
scalar Network800.node230 	time_period 	2
scalar Network800.node230 	number_of_messages 	2
scalar Network800.node230 	discovery_latency 	5388
scalar Network800.node230 	number_of_desired_resources 	20
scalar Network800.node230 	query_homogenity_rate 	33.333333333333
scalar Network800.node230 	qrecord_time 	10604.020771566
scalar Network800.node230 	discovery_resolution_rate 	0
scalar Network800.node330 	rate_of_requesters 	1
scalar Network800.node330 	number_of_resources 	44000
scalar Network800.node330 	time_period 	2
scalar Network800.node330 	number_of_messages 	2
scalar Network800.node330 	discovery_latency 	5436
scalar Network800.node330 	number_of_desired_resources 	20
scalar Network800.node330 	query_homogenity_rate 	33.333333333333
scalar Network800.node330 	qrecord_time 	10619.867514251
scalar Network800.node330 	discovery_resolution_rate 	0
scalar Network800.node60 	rate_of_requesters 	1
scalar Network800.node60 	number_of_resources 	44000
scalar Network800.node60 	time_period 	2
scalar Network800.node60 	number_of_messages 	2
scalar Network800.node60 	discovery_latency 	5076
scalar Network800.node60 	number_of_desired_resources 	20
scalar Network800.node60 	query_homogenity_rate 	33.333333333333
scalar Network800.node60 	qrecord_time 	10630.048924925
scalar Network800.node60 	discovery_resolution_rate 	0
scalar Network800.node320 	rate_of_requesters 	1
scalar Network800.node320 	number_of_resources 	44000
scalar Network800.node320 	time_period 	2
scalar Network800.node320 	number_of_messages 	2
scalar Network800.node320 	discovery_latency 	5244
scalar Network800.node320 	number_of_desired_resources 	20
scalar Network800.node320 	query_homogenity_rate 	33.333333333333
scalar Network800.node320 	qrecord_time 	10654.336352543
scalar Network800.node320 	discovery_resolution_rate 	0
scalar Network800.node750 	rate_of_requesters 	1
scalar Network800.node750 	number_of_resources 	44000
scalar Network800.node750 	time_period 	2
scalar Network800.node750 	number_of_messages 	2
scalar Network800.node750 	discovery_latency 	5496
scalar Network800.node750 	number_of_desired_resources 	20
scalar Network800.node750 	query_homogenity_rate 	33.333333333333
scalar Network800.node750 	qrecord_time 	10697.429080383
scalar Network800.node750 	discovery_resolution_rate 	0
scalar Network800.node210 	rate_of_requesters 	1
scalar Network800.node210 	number_of_resources 	44000
scalar Network800.node210 	time_period 	4
scalar Network800.node210 	number_of_messages 	2
scalar Network800.node210 	discovery_latency 	5136
scalar Network800.node210 	number_of_desired_resources 	20
scalar Network800.node210 	query_homogenity_rate 	33.333333333333
scalar Network800.node210 	qrecord_time 	10823.337037251
scalar Network800.node210 	discovery_resolution_rate 	0
scalar Network800.node620 	rate_of_requesters 	1
scalar Network800.node620 	number_of_resources 	44000
scalar Network800.node620 	time_period 	2
scalar Network800.node620 	number_of_messages 	2
scalar Network800.node620 	discovery_latency 	5328
scalar Network800.node620 	number_of_desired_resources 	20
scalar Network800.node620 	query_homogenity_rate 	33.333333333333
scalar Network800.node620 	qrecord_time 	10856.298445006
scalar Network800.node620 	discovery_resolution_rate 	0
scalar Network800.node310 	rate_of_requesters 	1
scalar Network800.node310 	number_of_resources 	44000
scalar Network800.node310 	time_period 	2
scalar Network800.node310 	number_of_messages 	2
scalar Network800.node310 	discovery_latency 	5220
scalar Network800.node310 	number_of_desired_resources 	20
scalar Network800.node310 	query_homogenity_rate 	33.333333333333
scalar Network800.node310 	qrecord_time 	10861.092356635
scalar Network800.node310 	discovery_resolution_rate 	0
scalar Network800.node190 	rate_of_requesters 	1
scalar Network800.node190 	number_of_resources 	44000
scalar Network800.node190 	time_period 	2
scalar Network800.node190 	number_of_messages 	2
scalar Network800.node190 	discovery_latency 	5268
scalar Network800.node190 	number_of_desired_resources 	20
scalar Network800.node190 	query_homogenity_rate 	33.333333333333
scalar Network800.node190 	qrecord_time 	10886.123467028
scalar Network800.node190 	discovery_resolution_rate 	0
scalar Network800.node660 	rate_of_requesters 	1
scalar Network800.node660 	number_of_resources 	44000
scalar Network800.node660 	time_period 	2
scalar Network800.node660 	number_of_messages 	2
scalar Network800.node660 	discovery_latency 	5484
scalar Network800.node660 	number_of_desired_resources 	20
scalar Network800.node660 	query_homogenity_rate 	33.333333333333
scalar Network800.node660 	qrecord_time 	10909.911852148
scalar Network800.node660 	discovery_resolution_rate 	0
scalar Network800.node500 	rate_of_requesters 	1
scalar Network800.node500 	number_of_resources 	44000
scalar Network800.node500 	time_period 	3
scalar Network800.node500 	number_of_messages 	2
scalar Network800.node500 	discovery_latency 	5280
scalar Network800.node500 	number_of_desired_resources 	20
scalar Network800.node500 	query_homogenity_rate 	33.333333333333
scalar Network800.node500 	qrecord_time 	10928.366231889
scalar Network800.node500 	discovery_resolution_rate 	0
scalar Network800.node630 	rate_of_requesters 	1
scalar Network800.node630 	number_of_resources 	44000
scalar Network800.node630 	time_period 	2
scalar Network800.node630 	number_of_messages 	2
scalar Network800.node630 	discovery_latency 	5130
scalar Network800.node630 	number_of_desired_resources 	20
scalar Network800.node630 	query_homogenity_rate 	33.333333333333
scalar Network800.node630 	qrecord_time 	10946.916741323
scalar Network800.node630 	discovery_resolution_rate 	0
scalar Network800.node220 	rate_of_requesters 	1
scalar Network800.node220 	number_of_resources 	44000
scalar Network800.node220 	time_period 	2
scalar Network800.node220 	number_of_messages 	2
scalar Network800.node220 	discovery_latency 	5292
scalar Network800.node220 	number_of_desired_resources 	20
scalar Network800.node220 	query_homogenity_rate 	33.333333333333
scalar Network800.node220 	qrecord_time 	11010.230509961
scalar Network800.node220 	discovery_resolution_rate 	0
scalar Network800.node160 	rate_of_requesters 	1
scalar Network800.node160 	number_of_resources 	44000
scalar Network800.node160 	time_period 	2
scalar Network800.node160 	number_of_messages 	2
scalar Network800.node160 	discovery_latency 	5340
scalar Network800.node160 	number_of_desired_resources 	20
scalar Network800.node160 	query_homogenity_rate 	33.333333333333
scalar Network800.node160 	qrecord_time 	11079.435467197
scalar Network800.node160 	discovery_resolution_rate 	0
scalar Network800.node420 	rate_of_requesters 	1
scalar Network800.node420 	number_of_resources 	44000
scalar Network800.node420 	time_period 	2
scalar Network800.node420 	number_of_messages 	2
scalar Network800.node420 	discovery_latency 	5436
scalar Network800.node420 	number_of_desired_resources 	20
scalar Network800.node420 	query_homogenity_rate 	33.333333333333
scalar Network800.node420 	qrecord_time 	11084.011716798
scalar Network800.node420 	discovery_resolution_rate 	0
scalar Network800.node440 	rate_of_requesters 	1
scalar Network800.node440 	number_of_resources 	44000
scalar Network800.node440 	time_period 	2
scalar Network800.node440 	number_of_messages 	2
scalar Network800.node440 	discovery_latency 	5148
scalar Network800.node440 	number_of_desired_resources 	20
scalar Network800.node440 	query_homogenity_rate 	33.333333333333
scalar Network800.node440 	qrecord_time 	11092.105769693
scalar Network800.node440 	discovery_resolution_rate 	0
scalar Network800.node70 	rate_of_requesters 	1
scalar Network800.node70 	number_of_resources 	44000
scalar Network800.node70 	time_period 	2
scalar Network800.node70 	number_of_messages 	2
scalar Network800.node70 	discovery_latency 	5256
scalar Network800.node70 	number_of_desired_resources 	20
scalar Network800.node70 	query_homogenity_rate 	33.333333333333
scalar Network800.node70 	qrecord_time 	11148.01077814
scalar Network800.node70 	discovery_resolution_rate 	0
scalar Network800.node40 	rate_of_requesters 	1
scalar Network800.node40 	number_of_resources 	44000
scalar Network800.node40 	time_period 	2
scalar Network800.node40 	number_of_messages 	2
scalar Network800.node40 	discovery_latency 	5352
scalar Network800.node40 	number_of_desired_resources 	20
scalar Network800.node40 	query_homogenity_rate 	33.333333333333
scalar Network800.node40 	qrecord_time 	11153.547068232
scalar Network800.node40 	discovery_resolution_rate 	0
scalar Network800.node220 	rate_of_requesters 	1
scalar Network800.node220 	number_of_resources 	44000
scalar Network800.node220 	time_period 	3
scalar Network800.node220 	number_of_messages 	2
scalar Network800.node220 	discovery_latency 	5304
scalar Network800.node220 	number_of_desired_resources 	20
scalar Network800.node220 	query_homogenity_rate 	33.333333333333
scalar Network800.node220 	qrecord_time 	11174.486367418
scalar Network800.node220 	discovery_resolution_rate 	0
scalar Network800.node270 	rate_of_requesters 	1
scalar Network800.node270 	number_of_resources 	44000
scalar Network800.node270 	time_period 	3
scalar Network800.node270 	number_of_messages 	2
scalar Network800.node270 	discovery_latency 	5472
scalar Network800.node270 	number_of_desired_resources 	20
scalar Network800.node270 	query_homogenity_rate 	33.333333333333
scalar Network800.node270 	qrecord_time 	11242.561433438
scalar Network800.node270 	discovery_resolution_rate 	0
scalar Network800.node90 	rate_of_requesters 	1
scalar Network800.node90 	number_of_resources 	44000
scalar Network800.node90 	time_period 	2
scalar Network800.node90 	number_of_messages 	2
scalar Network800.node90 	discovery_latency 	5196
scalar Network800.node90 	number_of_desired_resources 	20
scalar Network800.node90 	query_homogenity_rate 	33.333333333333
scalar Network800.node90 	qrecord_time 	11320.434918309
scalar Network800.node90 	discovery_resolution_rate 	0
scalar Network800.node350 	rate_of_requesters 	1
scalar Network800.node350 	number_of_resources 	44000
scalar Network800.node350 	time_period 	2
scalar Network800.node350 	number_of_messages 	2
scalar Network800.node350 	discovery_latency 	5388
scalar Network800.node350 	number_of_desired_resources 	20
scalar Network800.node350 	query_homogenity_rate 	33.333333333333
scalar Network800.node350 	qrecord_time 	11577.660279712
scalar Network800.node350 	discovery_resolution_rate 	0
scalar Network800.node530 	rate_of_requesters 	1
scalar Network800.node530 	number_of_resources 	44000
scalar Network800.node530 	time_period 	2
scalar Network800.node530 	number_of_messages 	2
scalar Network800.node530 	discovery_latency 	5424
scalar Network800.node530 	number_of_desired_resources 	20
scalar Network800.node530 	query_homogenity_rate 	33.333333333333
scalar Network800.node530 	qrecord_time 	11578.300284618
scalar Network800.node530 	discovery_resolution_rate 	0
scalar Network800.node230 	rate_of_requesters 	1
scalar Network800.node230 	number_of_resources 	44000
scalar Network800.node230 	time_period 	3
scalar Network800.node230 	number_of_messages 	2
scalar Network800.node230 	discovery_latency 	5352
scalar Network800.node230 	number_of_desired_resources 	20
scalar Network800.node230 	query_homogenity_rate 	33.333333333333
scalar Network800.node230 	qrecord_time 	11624.593078949
scalar Network800.node230 	discovery_resolution_rate 	0
scalar Network800.node390 	rate_of_requesters 	1
scalar Network800.node390 	number_of_resources 	44000
scalar Network800.node390 	time_period 	2
scalar Network800.node390 	number_of_messages 	2
scalar Network800.node390 	discovery_latency 	5388
scalar Network800.node390 	number_of_desired_resources 	20
scalar Network800.node390 	query_homogenity_rate 	33.333333333333
scalar Network800.node390 	qrecord_time 	11697.970769013
scalar Network800.node390 	discovery_resolution_rate 	0
scalar Network800.node50 	rate_of_requesters 	1
scalar Network800.node50 	number_of_resources 	44000
scalar Network800.node50 	time_period 	2
scalar Network800.node50 	number_of_messages 	2
scalar Network800.node50 	discovery_latency 	5268
scalar Network800.node50 	number_of_desired_resources 	20
scalar Network800.node50 	query_homogenity_rate 	33.333333333333
scalar Network800.node50 	qrecord_time 	11986.643572952
scalar Network800.node50 	discovery_resolution_rate 	0
scalar Network800.node510 	rate_of_requesters 	1
scalar Network800.node510 	number_of_resources 	44000
scalar Network800.node510 	time_period 	2
scalar Network800.node510 	number_of_messages 	2
scalar Network800.node510 	discovery_latency 	5412
scalar Network800.node510 	number_of_desired_resources 	20
scalar Network800.node510 	query_homogenity_rate 	33.333333333333
scalar Network800.node510 	qrecord_time 	12001.420552575
scalar Network800.node510 	discovery_resolution_rate 	0
scalar Network800.node330 	rate_of_requesters 	1
scalar Network800.node330 	number_of_resources 	44000
scalar Network800.node330 	time_period 	3
scalar Network800.node330 	number_of_messages 	2
scalar Network800.node330 	discovery_latency 	5136
scalar Network800.node330 	number_of_desired_resources 	20
scalar Network800.node330 	query_homogenity_rate 	33.333333333333
scalar Network800.node330 	qrecord_time 	12018.829621606
scalar Network800.node330 	discovery_resolution_rate 	0
scalar Network800.node490 	rate_of_requesters 	1
scalar Network800.node490 	number_of_resources 	44000
scalar Network800.node490 	time_period 	2
scalar Network800.node490 	number_of_messages 	2
scalar Network800.node490 	discovery_latency 	5424
scalar Network800.node490 	number_of_desired_resources 	20
scalar Network800.node490 	query_homogenity_rate 	33.333333333333
scalar Network800.node490 	qrecord_time 	12040.8028454
scalar Network800.node490 	discovery_resolution_rate 	0
scalar Network800.node590 	rate_of_requesters 	1
scalar Network800.node590 	number_of_resources 	44000
scalar Network800.node590 	time_period 	2
scalar Network800.node590 	number_of_messages 	2
scalar Network800.node590 	discovery_latency 	5292
scalar Network800.node590 	number_of_desired_resources 	20
scalar Network800.node590 	query_homogenity_rate 	33.333333333333
scalar Network800.node590 	qrecord_time 	12051.103658168
scalar Network800.node590 	discovery_resolution_rate 	0
scalar Network800.node610 	rate_of_requesters 	1
scalar Network800.node610 	number_of_resources 	44000
scalar Network800.node610 	time_period 	2
scalar Network800.node610 	number_of_messages 	2
scalar Network800.node610 	discovery_latency 	5184
scalar Network800.node610 	number_of_desired_resources 	20
scalar Network800.node610 	query_homogenity_rate 	33.333333333333
scalar Network800.node610 	qrecord_time 	12175.96813147
scalar Network800.node610 	discovery_resolution_rate 	0
scalar Network800.node210 	rate_of_requesters 	1
scalar Network800.node210 	number_of_resources 	44000
scalar Network800.node210 	time_period 	5
scalar Network800.node210 	number_of_messages 	2
scalar Network800.node210 	discovery_latency 	5400
scalar Network800.node210 	number_of_desired_resources 	20
scalar Network800.node210 	query_homogenity_rate 	33.333333333333
scalar Network800.node210 	qrecord_time 	12248.916973804
scalar Network800.node210 	discovery_resolution_rate 	0
scalar Network800.node220 	rate_of_requesters 	1
scalar Network800.node220 	number_of_resources 	44000
scalar Network800.node220 	time_period 	4
scalar Network800.node220 	number_of_messages 	2
scalar Network800.node220 	discovery_latency 	5340
scalar Network800.node220 	number_of_desired_resources 	20
scalar Network800.node220 	query_homogenity_rate 	33.333333333333
scalar Network800.node220 	qrecord_time 	12261.496030826
scalar Network800.node220 	discovery_resolution_rate 	0
scalar Network800.node420 	rate_of_requesters 	1
scalar Network800.node420 	number_of_resources 	44000
scalar Network800.node420 	time_period 	4
scalar Network800.node420 	number_of_messages 	2
scalar Network800.node420 	discovery_latency 	5112
scalar Network800.node420 	number_of_desired_resources 	20
scalar Network800.node420 	query_homogenity_rate 	33.333333333333
scalar Network800.node420 	qrecord_time 	12282.970085311
scalar Network800.node420 	discovery_resolution_rate 	0
scalar Network800.node420 	rate_of_requesters 	1
scalar Network800.node420 	number_of_resources 	44000
scalar Network800.node420 	time_period 	3
scalar Network800.node420 	number_of_messages 	2
scalar Network800.node420 	discovery_latency 	5292
scalar Network800.node420 	number_of_desired_resources 	20
scalar Network800.node420 	query_homogenity_rate 	33.333333333333
scalar Network800.node420 	qrecord_time 	12386.371380353
scalar Network800.node420 	discovery_resolution_rate 	0
scalar Network800.node370 	rate_of_requesters 	1
scalar Network800.node370 	number_of_resources 	44000
scalar Network800.node370 	time_period 	3
scalar Network800.node370 	number_of_messages 	2
scalar Network800.node370 	discovery_latency 	5448
scalar Network800.node370 	number_of_desired_resources 	20
scalar Network800.node370 	query_homogenity_rate 	33.333333333333
scalar Network800.node370 	qrecord_time 	12445.816419278
scalar Network800.node370 	discovery_resolution_rate 	0
scalar Network800.node0 	rate_of_requesters 	1
scalar Network800.node0 	number_of_resources 	44000
scalar Network800.node0 	time_period 	2
scalar Network800.node0 	number_of_messages 	2
scalar Network800.node0 	discovery_latency 	5328
scalar Network800.node0 	number_of_desired_resources 	20
scalar Network800.node0 	query_homogenity_rate 	33.333333333333
scalar Network800.node0 	qrecord_time 	12459.476577731
scalar Network800.node0 	discovery_resolution_rate 	0
scalar Network800.node470 	rate_of_requesters 	1
scalar Network800.node470 	number_of_resources 	44000
scalar Network800.node470 	time_period 	2
scalar Network800.node470 	number_of_messages 	0
scalar Network800.node470 	discovery_latency 	5280
scalar Network800.node470 	number_of_desired_resources 	20
scalar Network800.node470 	query_homogenity_rate 	33.333333333333
scalar Network800.node470 	qrecord_time 	12639.193574396
scalar Network800.node470 	discovery_resolution_rate 	0
scalar Network800.node690 	rate_of_requesters 	1
scalar Network800.node690 	number_of_resources 	44000
scalar Network800.node690 	time_period 	2
scalar Network800.node690 	number_of_messages 	2
scalar Network800.node690 	discovery_latency 	5112
scalar Network800.node690 	number_of_desired_resources 	20
scalar Network800.node690 	query_homogenity_rate 	33.333333333333
scalar Network800.node690 	qrecord_time 	12701.512502489
scalar Network800.node690 	discovery_resolution_rate 	0
scalar Network800.node590 	rate_of_requesters 	1
scalar Network800.node590 	number_of_resources 	44000
scalar Network800.node590 	time_period 	3
scalar Network800.node590 	number_of_messages 	2
scalar Network800.node590 	discovery_latency 	5160
scalar Network800.node590 	number_of_desired_resources 	20
scalar Network800.node590 	query_homogenity_rate 	33.333333333333
scalar Network800.node590 	qrecord_time 	12703.650559086
scalar Network800.node590 	discovery_resolution_rate 	0
scalar Network800.node250 	rate_of_requesters 	1
scalar Network800.node250 	number_of_resources 	44000
scalar Network800.node250 	time_period 	2
scalar Network800.node250 	number_of_messages 	2
scalar Network800.node250 	discovery_latency 	5352
scalar Network800.node250 	number_of_desired_resources 	20
scalar Network800.node250 	query_homogenity_rate 	33.333333333333
scalar Network800.node250 	qrecord_time 	12707.576906282
scalar Network800.node250 	discovery_resolution_rate 	0
scalar Network800.node390 	rate_of_requesters 	1
scalar Network800.node390 	number_of_resources 	44000
scalar Network800.node390 	time_period 	3
scalar Network800.node390 	number_of_messages 	2
scalar Network800.node390 	discovery_latency 	5328
scalar Network800.node390 	number_of_desired_resources 	20
scalar Network800.node390 	query_homogenity_rate 	33.333333333333
scalar Network800.node390 	qrecord_time 	12719.177014969
scalar Network800.node390 	discovery_resolution_rate 	0
scalar Network800.node380 	rate_of_requesters 	1
scalar Network800.node380 	number_of_resources 	44000
scalar Network800.node380 	time_period 	2
scalar Network800.node380 	number_of_messages 	2
scalar Network800.node380 	discovery_latency 	5148
scalar Network800.node380 	number_of_desired_resources 	20
scalar Network800.node380 	query_homogenity_rate 	33.333333333333
scalar Network800.node380 	qrecord_time 	12775.064469317
scalar Network800.node380 	discovery_resolution_rate 	0
scalar Network800.node300 	rate_of_requesters 	1
scalar Network800.node300 	number_of_resources 	44000
scalar Network800.node300 	time_period 	3
scalar Network800.node300 	number_of_messages 	2
scalar Network800.node300 	discovery_latency 	5232
scalar Network800.node300 	number_of_desired_resources 	20
scalar Network800.node300 	query_homogenity_rate 	33.333333333333
scalar Network800.node300 	qrecord_time 	12796.218600836
scalar Network800.node300 	discovery_resolution_rate 	0
scalar Network800.node120 	rate_of_requesters 	1
scalar Network800.node120 	number_of_resources 	44000
scalar Network800.node120 	time_period 	2
scalar Network800.node120 	number_of_messages 	0
scalar Network800.node120 	discovery_latency 	5232
scalar Network800.node120 	number_of_desired_resources 	20
scalar Network800.node120 	query_homogenity_rate 	33.333333333333
scalar Network800.node120 	qrecord_time 	12811.026363681
scalar Network800.node120 	discovery_resolution_rate 	0
scalar Network800.node50 	rate_of_requesters 	1
scalar Network800.node50 	number_of_resources 	44000
scalar Network800.node50 	time_period 	3
scalar Network800.node50 	number_of_messages 	2
scalar Network800.node50 	discovery_latency 	5460
scalar Network800.node50 	number_of_desired_resources 	20
scalar Network800.node50 	query_homogenity_rate 	33.333333333333
scalar Network800.node50 	qrecord_time 	12852.420286487
scalar Network800.node50 	discovery_resolution_rate 	0
scalar Network800.node210 	rate_of_requesters 	1
scalar Network800.node210 	number_of_resources 	44000
scalar Network800.node210 	time_period 	6
scalar Network800.node210 	number_of_messages 	2
scalar Network800.node210 	discovery_latency 	5364
scalar Network800.node210 	number_of_desired_resources 	20
scalar Network800.node210 	query_homogenity_rate 	33.333333333333
scalar Network800.node210 	qrecord_time 	12956.831312146
scalar Network800.node210 	discovery_resolution_rate 	0
scalar Network800.node720 	rate_of_requesters 	1
scalar Network800.node720 	number_of_resources 	44000
scalar Network800.node720 	time_period 	2
scalar Network800.node720 	number_of_messages 	2
scalar Network800.node720 	discovery_latency 	5436
scalar Network800.node720 	number_of_desired_resources 	20
scalar Network800.node720 	query_homogenity_rate 	33.333333333333
scalar Network800.node720 	qrecord_time 	12982.22214455
scalar Network800.node720 	discovery_resolution_rate 	0
scalar Network800.node110 	rate_of_requesters 	1
scalar Network800.node110 	number_of_resources 	44000
scalar Network800.node110 	time_period 	2
scalar Network800.node110 	number_of_messages 	2
scalar Network800.node110 	discovery_latency 	5232
scalar Network800.node110 	number_of_desired_resources 	20
scalar Network800.node110 	query_homogenity_rate 	33.333333333333
scalar Network800.node110 	qrecord_time 	13100.48231557
scalar Network800.node110 	discovery_resolution_rate 	0
scalar Network800.node380 	rate_of_requesters 	1
scalar Network800.node380 	number_of_resources 	44000
scalar Network800.node380 	time_period 	3
scalar Network800.node380 	number_of_messages 	2
scalar Network800.node380 	discovery_latency 	5256
scalar Network800.node380 	number_of_desired_resources 	20
scalar Network800.node380 	query_homogenity_rate 	33.333333333333
scalar Network800.node380 	qrecord_time 	13106.96905886
scalar Network800.node380 	discovery_resolution_rate 	0
scalar Network800.node330 	rate_of_requesters 	1
scalar Network800.node330 	number_of_resources 	44000
scalar Network800.node330 	time_period 	4
scalar Network800.node330 	number_of_messages 	2
scalar Network800.node330 	discovery_latency 	5058
scalar Network800.node330 	number_of_desired_resources 	20
scalar Network800.node330 	query_homogenity_rate 	33.333333333333
scalar Network800.node330 	qrecord_time 	13113.362796527
scalar Network800.node330 	discovery_resolution_rate 	0
scalar Network800.node660 	rate_of_requesters 	1
scalar Network800.node660 	number_of_resources 	44000
scalar Network800.node660 	time_period 	3
scalar Network800.node660 	number_of_messages 	2
scalar Network800.node660 	discovery_latency 	5112
scalar Network800.node660 	number_of_desired_resources 	20
scalar Network800.node660 	query_homogenity_rate 	33.333333333333
scalar Network800.node660 	qrecord_time 	13252.678753525
scalar Network800.node660 	discovery_resolution_rate 	0
scalar Network800.node730 	rate_of_requesters 	1
scalar Network800.node730 	number_of_resources 	44000
scalar Network800.node730 	time_period 	3
scalar Network800.node730 	number_of_messages 	2
scalar Network800.node730 	discovery_latency 	5244
scalar Network800.node730 	number_of_desired_resources 	20
scalar Network800.node730 	query_homogenity_rate 	33.333333333333
scalar Network800.node730 	qrecord_time 	13262.42982681
scalar Network800.node730 	discovery_resolution_rate 	0
scalar Network800.node430 	rate_of_requesters 	1
scalar Network800.node430 	number_of_resources 	44000
scalar Network800.node430 	time_period 	2
scalar Network800.node430 	number_of_messages 	2
scalar Network800.node430 	discovery_latency 	5436
scalar Network800.node430 	number_of_desired_resources 	20
scalar Network800.node430 	query_homogenity_rate 	33.333333333333
scalar Network800.node430 	qrecord_time 	13298.837270114
scalar Network800.node430 	discovery_resolution_rate 	0
scalar Network800.node270 	rate_of_requesters 	1
scalar Network800.node270 	number_of_resources 	44000
scalar Network800.node270 	time_period 	4
scalar Network800.node270 	number_of_messages 	2
scalar Network800.node270 	discovery_latency 	5388
scalar Network800.node270 	number_of_desired_resources 	20
scalar Network800.node270 	query_homogenity_rate 	33.333333333333
scalar Network800.node270 	qrecord_time 	13315.064364974
scalar Network800.node270 	discovery_resolution_rate 	0
scalar Network800.node600 	rate_of_requesters 	1
scalar Network800.node600 	number_of_resources 	44000
scalar Network800.node600 	time_period 	2
scalar Network800.node600 	number_of_messages 	0
scalar Network800.node600 	discovery_latency 	5268
scalar Network800.node600 	number_of_desired_resources 	20
scalar Network800.node600 	query_homogenity_rate 	33.333333333333
scalar Network800.node600 	qrecord_time 	13337.364029787
scalar Network800.node600 	discovery_resolution_rate 	0
scalar Network800.node40 	rate_of_requesters 	1
scalar Network800.node40 	number_of_resources 	44000
scalar Network800.node40 	time_period 	4
scalar Network800.node40 	number_of_messages 	94
scalar Network800.node40 	discovery_latency 	750
scalar Network800.node40 	number_of_desired_resources 	20
scalar Network800.node40 	query_homogenity_rate 	33.333333333333
scalar Network800.node40 	qrecord_time 	13402.999835958
scalar Network800.node40 	discovery_resolution_rate 	100
scalar Network800.node30 	rate_of_requesters 	1
scalar Network800.node30 	number_of_resources 	44000
scalar Network800.node30 	time_period 	2
scalar Network800.node30 	number_of_messages 	2
scalar Network800.node30 	discovery_latency 	5280
scalar Network800.node30 	number_of_desired_resources 	20
scalar Network800.node30 	query_homogenity_rate 	33.333333333333
scalar Network800.node30 	qrecord_time 	13413.511674906
scalar Network800.node30 	discovery_resolution_rate 	0
scalar Network800.node310 	rate_of_requesters 	1
scalar Network800.node310 	number_of_resources 	44000
scalar Network800.node310 	time_period 	3
scalar Network800.node310 	number_of_messages 	2
scalar Network800.node310 	discovery_latency 	5232
scalar Network800.node310 	number_of_desired_resources 	20
scalar Network800.node310 	query_homogenity_rate 	33.333333333333
scalar Network800.node310 	qrecord_time 	13451.720657155
scalar Network800.node310 	discovery_resolution_rate 	0
scalar Network800.node350 	rate_of_requesters 	1
scalar Network800.node350 	number_of_resources 	44000
scalar Network800.node350 	time_period 	3
scalar Network800.node350 	number_of_messages 	2
scalar Network800.node350 	discovery_latency 	5196
scalar Network800.node350 	number_of_desired_resources 	20
scalar Network800.node350 	query_homogenity_rate 	33.333333333333
scalar Network800.node350 	qrecord_time 	13473.001768063
scalar Network800.node350 	discovery_resolution_rate 	0
scalar Network800.node250 	rate_of_requesters 	1
scalar Network800.node250 	number_of_resources 	44000
scalar Network800.node250 	time_period 	3
scalar Network800.node250 	number_of_messages 	2
scalar Network800.node250 	discovery_latency 	5172
scalar Network800.node250 	number_of_desired_resources 	20
scalar Network800.node250 	query_homogenity_rate 	33.333333333333
scalar Network800.node250 	qrecord_time 	13495.528539356
scalar Network800.node250 	discovery_resolution_rate 	0
scalar Network800.node230 	rate_of_requesters 	1
scalar Network800.node230 	number_of_resources 	44000
scalar Network800.node230 	time_period 	4
scalar Network800.node230 	number_of_messages 	2
scalar Network800.node230 	discovery_latency 	5160
scalar Network800.node230 	number_of_desired_resources 	20
scalar Network800.node230 	query_homogenity_rate 	33.333333333333
scalar Network800.node230 	qrecord_time 	13555.738878835
scalar Network800.node230 	discovery_resolution_rate 	0
scalar Network800.node260 	rate_of_requesters 	1
scalar Network800.node260 	number_of_resources 	44000
scalar Network800.node260 	time_period 	3
scalar Network800.node260 	number_of_messages 	2
scalar Network800.node260 	discovery_latency 	5364
scalar Network800.node260 	number_of_desired_resources 	20
scalar Network800.node260 	query_homogenity_rate 	33.333333333333
scalar Network800.node260 	qrecord_time 	13570.340952473
scalar Network800.node260 	discovery_resolution_rate 	0
scalar Network800.node340 	rate_of_requesters 	1
scalar Network800.node340 	number_of_resources 	44000
scalar Network800.node340 	time_period 	2
scalar Network800.node340 	number_of_messages 	2
scalar Network800.node340 	discovery_latency 	5196
scalar Network800.node340 	number_of_desired_resources 	20
scalar Network800.node340 	query_homogenity_rate 	33.333333333333
scalar Network800.node340 	qrecord_time 	13603.48833473
scalar Network800.node340 	discovery_resolution_rate 	0
scalar Network800.node380 	rate_of_requesters 	1
scalar Network800.node380 	number_of_resources 	44000
scalar Network800.node380 	time_period 	4
scalar Network800.node380 	number_of_messages 	2
scalar Network800.node380 	discovery_latency 	5184
scalar Network800.node380 	number_of_desired_resources 	20
scalar Network800.node380 	query_homogenity_rate 	33.333333333333
scalar Network800.node380 	qrecord_time 	13736.426390383
scalar Network800.node380 	discovery_resolution_rate 	0
scalar Network800.node420 	rate_of_requesters 	1
scalar Network800.node420 	number_of_resources 	44000
scalar Network800.node420 	time_period 	5
scalar Network800.node420 	number_of_messages 	2
scalar Network800.node420 	discovery_latency 	5220
scalar Network800.node420 	number_of_desired_resources 	20
scalar Network800.node420 	query_homogenity_rate 	33.333333333333
scalar Network800.node420 	qrecord_time 	13839.13869673
scalar Network800.node420 	discovery_resolution_rate 	0
scalar Network800.node290 	rate_of_requesters 	1
scalar Network800.node290 	number_of_resources 	44000
scalar Network800.node290 	time_period 	2
scalar Network800.node290 	number_of_messages 	2
scalar Network800.node290 	discovery_latency 	5196
scalar Network800.node290 	number_of_desired_resources 	20
scalar Network800.node290 	query_homogenity_rate 	33.333333333333
scalar Network800.node290 	qrecord_time 	13887.912901406
scalar Network800.node290 	discovery_resolution_rate 	0
scalar Network800.node290 	rate_of_requesters 	1
scalar Network800.node290 	number_of_resources 	44000
scalar Network800.node290 	time_period 	3
scalar Network800.node290 	number_of_messages 	2
scalar Network800.node290 	discovery_latency 	5220
scalar Network800.node290 	number_of_desired_resources 	20
scalar Network800.node290 	query_homogenity_rate 	33.333333333333
scalar Network800.node290 	qrecord_time 	13982.817318122
scalar Network800.node290 	discovery_resolution_rate 	0
scalar Network800.node570 	rate_of_requesters 	1
scalar Network800.node570 	number_of_resources 	44000
scalar Network800.node570 	time_period 	2
scalar Network800.node570 	number_of_messages 	2
scalar Network800.node570 	discovery_latency 	5280
scalar Network800.node570 	number_of_desired_resources 	20
scalar Network800.node570 	query_homogenity_rate 	33.333333333333
scalar Network800.node570 	qrecord_time 	14035.085079136
scalar Network800.node570 	discovery_resolution_rate 	0
scalar Network800.node460 	rate_of_requesters 	1
scalar Network800.node460 	number_of_resources 	44000
scalar Network800.node460 	time_period 	2
scalar Network800.node460 	number_of_messages 	2
scalar Network800.node460 	discovery_latency 	5232
scalar Network800.node460 	number_of_desired_resources 	20
scalar Network800.node460 	query_homogenity_rate 	33.333333333333
scalar Network800.node460 	qrecord_time 	14057.645891774
scalar Network800.node460 	discovery_resolution_rate 	0
scalar Network800.node770 	rate_of_requesters 	1
scalar Network800.node770 	number_of_resources 	44000
scalar Network800.node770 	time_period 	2
scalar Network800.node770 	number_of_messages 	2
scalar Network800.node770 	discovery_latency 	5400
scalar Network800.node770 	number_of_desired_resources 	20
scalar Network800.node770 	query_homogenity_rate 	33.333333333333
scalar Network800.node770 	qrecord_time 	14138.12639341
scalar Network800.node770 	discovery_resolution_rate 	0
scalar Network800.node130 	rate_of_requesters 	1
scalar Network800.node130 	number_of_resources 	44000
scalar Network800.node130 	time_period 	2
scalar Network800.node130 	number_of_messages 	2
scalar Network800.node130 	discovery_latency 	5250
scalar Network800.node130 	number_of_desired_resources 	20
scalar Network800.node130 	query_homogenity_rate 	33.333333333333
scalar Network800.node130 	qrecord_time 	14155.266511856
[...]
scalar Network800.node440 	discovery_latency 	5058
scalar Network800.node440 	number_of_desired_resources 	20
scalar Network800.node440 	query_homogenity_rate 	33.333333333333
scalar Network800.node440 	qrecord_time 	52510.004926826
scalar Network800.node440 	discovery_resolution_rate 	33.333333333333
scalar Network800.node480 	rate_of_requesters 	1
scalar Network800.node480 	number_of_resources 	44000
scalar Network800.node480 	time_period 	10
scalar Network800.node480 	number_of_messages 	243
scalar Network800.node480 	discovery_latency 	4998
scalar Network800.node480 	number_of_desired_resources 	20
scalar Network800.node480 	query_homogenity_rate 	33.333333333333
scalar Network800.node480 	qrecord_time 	52548.874488212
scalar Network800.node480 	discovery_resolution_rate 	50
scalar Network800.node350 	rate_of_requesters 	1
scalar Network800.node350 	number_of_resources 	44000
scalar Network800.node350 	time_period 	10
scalar Network800.node350 	number_of_messages 	67
scalar Network800.node350 	discovery_latency 	5082
scalar Network800.node350 	number_of_desired_resources 	20
scalar Network800.node350 	query_homogenity_rate 	33.333333333333
scalar Network800.node350 	qrecord_time 	52567.965345568
scalar Network800.node350 	discovery_resolution_rate 	66.666666666667
scalar Network800.node650 	rate_of_requesters 	1
scalar Network800.node650 	number_of_resources 	44000
scalar Network800.node650 	time_period 	10
scalar Network800.node650 	number_of_messages 	43
scalar Network800.node650 	discovery_latency 	5388
scalar Network800.node650 	number_of_desired_resources 	20
scalar Network800.node650 	query_homogenity_rate 	33.333333333333
scalar Network800.node650 	qrecord_time 	52895.236289259
scalar Network800.node650 	discovery_resolution_rate 	33.333333333333
scalar Network800.node240 	rate_of_requesters 	1
scalar Network800.node240 	number_of_resources 	44000
scalar Network800.node240 	time_period 	8
scalar Network800.node240 	number_of_messages 	274
scalar Network800.node240 	discovery_latency 	5046
scalar Network800.node240 	number_of_desired_resources 	20
scalar Network800.node240 	query_homogenity_rate 	33.333333333333
scalar Network800.node240 	qrecord_time 	53015.556622031
scalar Network800.node240 	discovery_resolution_rate 	50
scalar Network800.node730 	rate_of_requesters 	1
scalar Network800.node730 	number_of_resources 	44000
scalar Network800.node730 	time_period 	8
scalar Network800.node730 	number_of_messages 	265
scalar Network800.node730 	discovery_latency 	5328
scalar Network800.node730 	number_of_desired_resources 	20
scalar Network800.node730 	query_homogenity_rate 	33.333333333333
scalar Network800.node730 	qrecord_time 	53273.271533239
scalar Network800.node730 	discovery_resolution_rate 	50
scalar Network800.node300 	rate_of_requesters 	1
scalar Network800.node300 	number_of_resources 	44000
scalar Network800.node300 	time_period 	10
scalar Network800.node300 	number_of_messages 	88
scalar Network800.node300 	discovery_latency 	4716
scalar Network800.node300 	number_of_desired_resources 	20
scalar Network800.node300 	query_homogenity_rate 	33.333333333333
scalar Network800.node300 	qrecord_time 	53290.385137125
scalar Network800.node300 	discovery_resolution_rate 	66.666666666667
scalar Network800.node760 	rate_of_requesters 	1
scalar Network800.node760 	number_of_resources 	44000
scalar Network800.node760 	time_period 	10
scalar Network800.node760 	number_of_messages 	325
scalar Network800.node760 	discovery_latency 	4668
scalar Network800.node760 	number_of_desired_resources 	20
scalar Network800.node760 	query_homogenity_rate 	33.333333333333
scalar Network800.node760 	qrecord_time 	53348.269966645
scalar Network800.node760 	discovery_resolution_rate 	83.333333333333
scalar Network800.node700 	rate_of_requesters 	1
scalar Network800.node700 	number_of_resources 	44000
scalar Network800.node700 	time_period 	10
scalar Network800.node700 	number_of_messages 	283
scalar Network800.node700 	discovery_latency 	5058
scalar Network800.node700 	number_of_desired_resources 	20
scalar Network800.node700 	query_homogenity_rate 	33.333333333333
scalar Network800.node700 	qrecord_time 	53371.079334505
scalar Network800.node700 	discovery_resolution_rate 	83.333333333333
scalar Network800.node250 	rate_of_requesters 	1
scalar Network800.node250 	number_of_resources 	44000
scalar Network800.node250 	time_period 	9
scalar Network800.node250 	number_of_messages 	279
scalar Network800.node250 	discovery_latency 	5118
scalar Network800.node250 	number_of_desired_resources 	20
scalar Network800.node250 	query_homogenity_rate 	33.333333333333
scalar Network800.node250 	qrecord_time 	53745.700535295
scalar Network800.node250 	discovery_resolution_rate 	50
scalar Network800.node710 	rate_of_requesters 	1
scalar Network800.node710 	number_of_resources 	44000
scalar Network800.node710 	time_period 	10
scalar Network800.node710 	number_of_messages 	92
scalar Network800.node710 	discovery_latency 	846
scalar Network800.node710 	number_of_desired_resources 	20
scalar Network800.node710 	query_homogenity_rate 	33.333333333333
scalar Network800.node710 	qrecord_time 	54386.42459321
scalar Network800.node710 	discovery_resolution_rate 	100
scalar Network800.node70 	rate_of_requesters 	1
scalar Network800.node70 	number_of_resources 	44000
scalar Network800.node70 	time_period 	10
scalar Network800.node70 	number_of_messages 	69
scalar Network800.node70 	discovery_latency 	966
scalar Network800.node70 	number_of_desired_resources 	20
scalar Network800.node70 	query_homogenity_rate 	33.333333333333
scalar Network800.node70 	qrecord_time 	54831.242827122
scalar Network800.node70 	discovery_resolution_rate 	100
scalar Network800.node0 	rate_of_requesters 	1
scalar Network800.node0 	number_of_resources 	44000
scalar Network800.node0 	time_period 	9
scalar Network800.node0 	number_of_messages 	476
scalar Network800.node0 	discovery_latency 	4998
scalar Network800.node0 	number_of_desired_resources 	20
scalar Network800.node0 	query_homogenity_rate 	33.333333333333
scalar Network800.node0 	qrecord_time 	54912.008837592
scalar Network800.node0 	discovery_resolution_rate 	66.666666666667
scalar Network800.node540 	rate_of_requesters 	1
scalar Network800.node540 	number_of_resources 	44000
scalar Network800.node540 	time_period 	9
scalar Network800.node540 	number_of_messages 	98
scalar Network800.node540 	discovery_latency 	4836
scalar Network800.node540 	number_of_desired_resources 	20
scalar Network800.node540 	query_homogenity_rate 	33.333333333333
scalar Network800.node540 	qrecord_time 	55022.774110666
scalar Network800.node540 	discovery_resolution_rate 	66.666666666667
scalar Network800.node540 	rate_of_requesters 	1
scalar Network800.node540 	number_of_resources 	44000
scalar Network800.node540 	time_period 	10
scalar Network800.node540 	number_of_messages 	36
scalar Network800.node540 	discovery_latency 	360
scalar Network800.node540 	number_of_desired_resources 	20
scalar Network800.node540 	query_homogenity_rate 	33.333333333333
scalar Network800.node540 	qrecord_time 	55039.221924866
scalar Network800.node540 	discovery_resolution_rate 	100
scalar Network800.node130 	rate_of_requesters 	1
scalar Network800.node130 	number_of_resources 	44000
scalar Network800.node130 	time_period 	10
scalar Network800.node130 	number_of_messages 	8
scalar Network800.node130 	discovery_latency 	4854
scalar Network800.node130 	number_of_desired_resources 	20
scalar Network800.node130 	query_homogenity_rate 	33.333333333333
scalar Network800.node130 	qrecord_time 	55159.036824169
scalar Network800.node130 	discovery_resolution_rate 	33.333333333333
scalar Network800.node120 	rate_of_requesters 	1
scalar Network800.node120 	number_of_resources 	44000
scalar Network800.node120 	time_period 	10
scalar Network800.node120 	number_of_messages 	33
scalar Network800.node120 	discovery_latency 	4860
scalar Network800.node120 	number_of_desired_resources 	20
scalar Network800.node120 	query_homogenity_rate 	33.333333333333
scalar Network800.node120 	qrecord_time 	55778.653226386
scalar Network800.node120 	discovery_resolution_rate 	66.666666666667
scalar Network800.node140 	rate_of_requesters 	1
scalar Network800.node140 	number_of_resources 	44000
scalar Network800.node140 	time_period 	10
scalar Network800.node140 	number_of_messages 	39
scalar Network800.node140 	discovery_latency 	516.00000000001
scalar Network800.node140 	number_of_desired_resources 	20
scalar Network800.node140 	query_homogenity_rate 	33.333333333333
scalar Network800.node140 	qrecord_time 	56304.933347271
scalar Network800.node140 	discovery_resolution_rate 	100
scalar Network800.node450 	rate_of_requesters 	1
scalar Network800.node450 	number_of_resources 	44000
scalar Network800.node450 	time_period 	10
scalar Network800.node450 	number_of_messages 	49
scalar Network800.node450 	discovery_latency 	732
scalar Network800.node450 	number_of_desired_resources 	20
scalar Network800.node450 	query_homogenity_rate 	33.333333333333
scalar Network800.node450 	qrecord_time 	56639.619285695
scalar Network800.node450 	discovery_resolution_rate 	100
scalar Network800.node200 	rate_of_requesters 	1
scalar Network800.node200 	number_of_resources 	44000
scalar Network800.node200 	time_period 	8
scalar Network800.node200 	number_of_messages 	32
scalar Network800.node200 	discovery_latency 	492
scalar Network800.node200 	number_of_desired_resources 	20
scalar Network800.node200 	query_homogenity_rate 	33.333333333333
scalar Network800.node200 	qrecord_time 	56778.62509777
scalar Network800.node200 	discovery_resolution_rate 	100
scalar Network800.node450 	rate_of_requesters 	1
scalar Network800.node450 	number_of_resources 	44000
scalar Network800.node450 	time_period 	9
scalar Network800.node450 	number_of_messages 	22
scalar Network800.node450 	discovery_latency 	4968
scalar Network800.node450 	number_of_desired_resources 	20
scalar Network800.node450 	query_homogenity_rate 	33.333333333333
scalar Network800.node450 	qrecord_time 	56811.751408376
scalar Network800.node450 	discovery_resolution_rate 	66.666666666667
scalar Network800.node770 	rate_of_requesters 	1
scalar Network800.node770 	number_of_resources 	44000
scalar Network800.node770 	time_period 	10
scalar Network800.node770 	number_of_messages 	36
scalar Network800.node770 	discovery_latency 	4884
scalar Network800.node770 	number_of_desired_resources 	20
scalar Network800.node770 	query_homogenity_rate 	33.333333333333
scalar Network800.node770 	qrecord_time 	56966.943831135
scalar Network800.node770 	discovery_resolution_rate 	66.666666666667
scalar Network800.node580 	rate_of_requesters 	1
scalar Network800.node580 	number_of_resources 	44000
scalar Network800.node580 	time_period 	7
scalar Network800.node580 	number_of_messages 	20
scalar Network800.node580 	discovery_latency 	168
scalar Network800.node580 	number_of_desired_resources 	20
scalar Network800.node580 	query_homogenity_rate 	33.333333333333
scalar Network800.node580 	qrecord_time 	57037.278684879
scalar Network800.node580 	discovery_resolution_rate 	100
scalar Network800.node240 	rate_of_requesters 	1
scalar Network800.node240 	number_of_resources 	44000
scalar Network800.node240 	time_period 	10
scalar Network800.node240 	number_of_messages 	18
scalar Network800.node240 	discovery_latency 	4890
scalar Network800.node240 	number_of_desired_resources 	20
scalar Network800.node240 	query_homogenity_rate 	33.333333333333
scalar Network800.node240 	qrecord_time 	57169.427922838
scalar Network800.node240 	discovery_resolution_rate 	33.333333333333
scalar Network800.node140 	rate_of_requesters 	1
scalar Network800.node140 	number_of_resources 	44000
scalar Network800.node140 	time_period 	9
scalar Network800.node140 	number_of_messages 	23
scalar Network800.node140 	discovery_latency 	5034
scalar Network800.node140 	number_of_desired_resources 	20
scalar Network800.node140 	query_homogenity_rate 	33.333333333333
scalar Network800.node140 	qrecord_time 	57230.161034827
scalar Network800.node140 	discovery_resolution_rate 	33.333333333333
scalar Network800.node250 	rate_of_requesters 	1
scalar Network800.node250 	number_of_resources 	44000
scalar Network800.node250 	time_period 	10
scalar Network800.node250 	number_of_messages 	75
scalar Network800.node250 	discovery_latency 	4944
scalar Network800.node250 	number_of_desired_resources 	20
scalar Network800.node250 	query_homogenity_rate 	33.333333333333
scalar Network800.node250 	qrecord_time 	57393.99132631
scalar Network800.node250 	discovery_resolution_rate 	66.666666666667
scalar Network800.node730 	rate_of_requesters 	1
scalar Network800.node730 	number_of_resources 	44000
scalar Network800.node730 	time_period 	9
scalar Network800.node730 	number_of_messages 	241
scalar Network800.node730 	discovery_latency 	5010
scalar Network800.node730 	number_of_desired_resources 	20
scalar Network800.node730 	query_homogenity_rate 	33.333333333333
scalar Network800.node730 	qrecord_time 	57709.389207244
scalar Network800.node730 	discovery_resolution_rate 	50
scalar Network800.node200 	rate_of_requesters 	1
scalar Network800.node200 	number_of_resources 	44000
scalar Network800.node200 	time_period 	9
scalar Network800.node200 	number_of_messages 	32
scalar Network800.node200 	discovery_latency 	492
scalar Network800.node200 	number_of_desired_resources 	20
scalar Network800.node200 	query_homogenity_rate 	33.333333333333
scalar Network800.node200 	qrecord_time 	58190.848241148
scalar Network800.node200 	discovery_resolution_rate 	100
scalar Network800.node580 	rate_of_requesters 	1
scalar Network800.node580 	number_of_resources 	44000
scalar Network800.node580 	time_period 	6
scalar Network800.node580 	number_of_messages 	34
scalar Network800.node580 	discovery_latency 	4956
scalar Network800.node580 	number_of_desired_resources 	20
scalar Network800.node580 	query_homogenity_rate 	33.333333333333
scalar Network800.node580 	qrecord_time 	59074.203406773
scalar Network800.node580 	discovery_resolution_rate 	66.666666666667
scalar Network800.node580 	rate_of_requesters 	1
scalar Network800.node580 	number_of_resources 	44000
scalar Network800.node580 	time_period 	9
scalar Network800.node580 	number_of_messages 	20
scalar Network800.node580 	discovery_latency 	180
scalar Network800.node580 	number_of_desired_resources 	20
scalar Network800.node580 	query_homogenity_rate 	33.333333333333
scalar Network800.node580 	qrecord_time 	59404.63028978
scalar Network800.node580 	discovery_resolution_rate 	100
scalar Network800.node580 	rate_of_requesters 	1
scalar Network800.node580 	number_of_resources 	44000
scalar Network800.node580 	time_period 	10
scalar Network800.node580 	number_of_messages 	21
scalar Network800.node580 	discovery_latency 	180
scalar Network800.node580 	number_of_desired_resources 	20
scalar Network800.node580 	query_homogenity_rate 	33.333333333333
scalar Network800.node580 	qrecord_time 	59422.932385833
scalar Network800.node580 	discovery_resolution_rate 	100
scalar Network800.node200 	rate_of_requesters 	1
scalar Network800.node200 	number_of_resources 	44000
scalar Network800.node200 	time_period 	10
scalar Network800.node200 	number_of_messages 	27
scalar Network800.node200 	discovery_latency 	348
scalar Network800.node200 	number_of_desired_resources 	20
scalar Network800.node200 	query_homogenity_rate 	33.333333333333
scalar Network800.node200 	qrecord_time 	61030.42358051
scalar Network800.node200 	discovery_resolution_rate 	100
scalar Network800.node170 	rate_of_requesters 	1
scalar Network800.node170 	number_of_resources 	44000
scalar Network800.node170 	time_period 	10
scalar Network800.node170 	number_of_messages 	31
scalar Network800.node170 	discovery_latency 	360
scalar Network800.node170 	number_of_desired_resources 	20
scalar Network800.node170 	query_homogenity_rate 	33.333333333333
scalar Network800.node170 	qrecord_time 	61607.378613381
scalar Network800.node170 	discovery_resolution_rate 	100
scalar Network800.node730 	rate_of_requesters 	1
scalar Network800.node730 	number_of_resources 	44000
scalar Network800.node730 	time_period 	10
scalar Network800.node730 	number_of_messages 	230
scalar Network800.node730 	discovery_latency 	4908
scalar Network800.node730 	number_of_desired_resources 	20
scalar Network800.node730 	query_homogenity_rate 	33.333333333333
scalar Network800.node730 	qrecord_time 	61769.486859184
scalar Network800.node730 	discovery_resolution_rate 	83.333333333333
scalar Network800.node580 	rate_of_requesters 	1
scalar Network800.node580 	number_of_resources 	44000
scalar Network800.node580 	time_period 	8
scalar Network800.node580 	number_of_messages 	17
scalar Network800.node580 	discovery_latency 	4848
scalar Network800.node580 	number_of_desired_resources 	20
scalar Network800.node580 	query_homogenity_rate 	33.333333333333
scalar Network800.node580 	qrecord_time 	62361.511568607
scalar Network800.node580 	discovery_resolution_rate 	66.666666666667
scalar Network800.node780 	rate_of_requesters 	1
scalar Network800.node780 	number_of_resources 	44000
scalar Network800.node780 	time_period 	10
scalar Network800.node780 	number_of_messages 	45
scalar Network800.node780 	discovery_latency 	672
scalar Network800.node780 	number_of_desired_resources 	20
scalar Network800.node780 	query_homogenity_rate 	33.333333333333
scalar Network800.node780 	qrecord_time 	63416.406834809
scalar Network800.node780 	discovery_resolution_rate 	100
scalar Network800.node600 	rate_of_requesters 	1
scalar Network800.node600 	number_of_resources 	44000
scalar Network800.node600 	time_period 	6
scalar Network800.node600 	number_of_messages 	46
scalar Network800.node600 	discovery_latency 	840
scalar Network800.node600 	number_of_desired_resources 	20
scalar Network800.node600 	query_homogenity_rate 	33.333333333333
scalar Network800.node600 	qrecord_time 	65254.818312164
scalar Network800.node600 	discovery_resolution_rate 	100
scalar Network800.node600 	rate_of_requesters 	1
scalar Network800.node600 	number_of_resources 	44000
scalar Network800.node600 	time_period 	7
scalar Network800.node600 	number_of_messages 	16
scalar Network800.node600 	discovery_latency 	156.00000000001
scalar Network800.node600 	number_of_desired_resources 	20
scalar Network800.node600 	query_homogenity_rate 	33.333333333333
scalar Network800.node600 	qrecord_time 	70021.368296887
scalar Network800.node600 	discovery_resolution_rate 	100
scalar Network800.node600 	rate_of_requesters 	1
scalar Network800.node600 	number_of_resources 	44000
scalar Network800.node600 	time_period 	8
scalar Network800.node600 	number_of_messages 	16
scalar Network800.node600 	discovery_latency 	156.00000000001
scalar Network800.node600 	number_of_desired_resources 	20
scalar Network800.node600 	query_homogenity_rate 	33.333333333333
scalar Network800.node600 	qrecord_time 	75334.297364826
scalar Network800.node600 	discovery_resolution_rate 	100
scalar Network800.node600 	rate_of_requesters 	1
scalar Network800.node600 	number_of_resources 	44000
scalar Network800.node600 	time_period 	9
scalar Network800.node600 	number_of_messages 	16
scalar Network800.node600 	discovery_latency 	156.00000000001
scalar Network800.node600 	number_of_desired_resources 	20
scalar Network800.node600 	query_homogenity_rate 	33.333333333333
scalar Network800.node600 	qrecord_time 	84811.002135173
scalar Network800.node600 	discovery_resolution_rate 	100
scalar Network800.node600 	rate_of_requesters 	1
scalar Network800.node600 	number_of_resources 	44000
scalar Network800.node600 	time_period 	10
scalar Network800.node600 	number_of_messages 	25
scalar Network800.node600 	discovery_latency 	312
scalar Network800.node600 	number_of_desired_resources 	20
scalar Network800.node600 	query_homogenity_rate 	33.333333333333
scalar Network800.node600 	qrecord_time 	85255.84592106
scalar Network800.node600 	discovery_resolution_rate 	100
