version 2
run net800-1-20150624-02:16:33-28513
attr as 1
attr configname net800
attr datetime 20150624-02:16:33
attr dnor 20
attr experiment net800
attr inifile omnetpp.ini
attr iterationvars "$rhdrq=3, $dnor=20, $as=1"
attr iterationvars2 "$rhdrq=3, $dnor=20, $as=1, $repetition=1"
attr measurement "$rhdrq=3, $dnor=20, $as=1"
attr network Network800
attr processid 28513
attr repetition 1
attr replication #1
attr resultdir results
attr rhdrq 3
attr runnumber 1
attr seedset 1

scalar . 	as 	1
scalar . 	dnor 	20
scalar . 	rhdrq 	3
scalar Network800.node490 	rate_of_requesters 	1
scalar Network800.node490 	number_of_resources 	44000
scalar Network800.node490 	time_period 	1
scalar Network800.node490 	number_of_messages 	35
scalar Network800.node490 	discovery_latency 	288
scalar Network800.node490 	number_of_desired_resources 	20
scalar Network800.node490 	query_homogenity_rate 	33.333333333333
scalar Network800.node490 	qrecord_time 	5020
scalar Network800.node490 	discovery_resolution_rate 	100
scalar Network800.node740 	rate_of_requesters 	1
scalar Network800.node740 	number_of_resources 	44000
scalar Network800.node740 	time_period 	1
scalar Network800.node740 	number_of_messages 	25
scalar Network800.node740 	discovery_latency 	276
scalar Network800.node740 	number_of_desired_resources 	20
scalar Network800.node740 	query_homogenity_rate 	33.333333333333
scalar Network800.node740 	qrecord_time 	5044
scalar Network800.node740 	discovery_resolution_rate 	100
scalar Network800.node540 	rate_of_requesters 	1
scalar Network800.node540 	number_of_resources 	44000
scalar Network800.node540 	time_period 	1
scalar Network800.node540 	number_of_messages 	76
scalar Network800.node540 	discovery_latency 	4632
scalar Network800.node540 	number_of_desired_resources 	20
scalar Network800.node540 	query_homogenity_rate 	33.333333333333
scalar Network800.node540 	qrecord_time 	9322
scalar Network800.node540 	discovery_resolution_rate 	66.666666666667
scalar Network800.node570 	rate_of_requesters 	1
scalar Network800.node570 	number_of_resources 	44000
scalar Network800.node570 	time_period 	1
scalar Network800.node570 	number_of_messages 	23
scalar Network800.node570 	discovery_latency 	4632
scalar Network800.node570 	number_of_desired_resources 	20
scalar Network800.node570 	query_homogenity_rate 	33.333333333333
scalar Network800.node570 	qrecord_time 	9340
scalar Network800.node570 	discovery_resolution_rate 	66.666666666667
scalar Network800.node230 	rate_of_requesters 	1
scalar Network800.node230 	number_of_resources 	44000
scalar Network800.node230 	time_period 	1
scalar Network800.node230 	number_of_messages 	23
scalar Network800.node230 	discovery_latency 	4704
scalar Network800.node230 	number_of_desired_resources 	20
scalar Network800.node230 	query_homogenity_rate 	33.333333333333
scalar Network800.node230 	qrecord_time 	9370
scalar Network800.node230 	discovery_resolution_rate 	66.666666666667
scalar Network800.node360 	rate_of_requesters 	1
scalar Network800.node360 	number_of_resources 	44000
scalar Network800.node360 	time_period 	1
scalar Network800.node360 	number_of_messages 	4
scalar Network800.node360 	discovery_latency 	4644
scalar Network800.node360 	number_of_desired_resources 	20
scalar Network800.node360 	query_homogenity_rate 	33.333333333333
scalar Network800.node360 	qrecord_time 	9370
scalar Network800.node360 	discovery_resolution_rate 	33.333333333333
scalar Network800.node290 	rate_of_requesters 	1
scalar Network800.node290 	number_of_resources 	44000
scalar Network800.node290 	time_period 	1
scalar Network800.node290 	number_of_messages 	15
scalar Network800.node290 	discovery_latency 	4608
scalar Network800.node290 	number_of_desired_resources 	20
scalar Network800.node290 	query_homogenity_rate 	33.333333333333
scalar Network800.node290 	qrecord_time 	9382
scalar Network800.node290 	discovery_resolution_rate 	66.666666666667
scalar Network800.node500 	rate_of_requesters 	1
scalar Network800.node500 	number_of_resources 	44000
scalar Network800.node500 	time_period 	1
scalar Network800.node500 	number_of_messages 	4
scalar Network800.node500 	discovery_latency 	4680
scalar Network800.node500 	number_of_desired_resources 	20
scalar Network800.node500 	query_homogenity_rate 	33.333333333333
scalar Network800.node500 	qrecord_time 	9394
scalar Network800.node500 	discovery_resolution_rate 	33.333333333333
scalar Network800.node420 	rate_of_requesters 	1
scalar Network800.node420 	number_of_resources 	44000
scalar Network800.node420 	time_period 	1
scalar Network800.node420 	number_of_messages 	19
scalar Network800.node420 	discovery_latency 	4692
scalar Network800.node420 	number_of_desired_resources 	20
scalar Network800.node420 	query_homogenity_rate 	33.333333333333
scalar Network800.node420 	qrecord_time 	9400
scalar Network800.node420 	discovery_resolution_rate 	66.666666666667
scalar Network800.node670 	rate_of_requesters 	1
scalar Network800.node670 	number_of_resources 	44000
scalar Network800.node670 	time_period 	1
scalar Network800.node670 	number_of_messages 	65
scalar Network800.node670 	discovery_latency 	4728
scalar Network800.node670 	number_of_desired_resources 	20
scalar Network800.node670 	query_homogenity_rate 	33.333333333333
scalar Network800.node670 	qrecord_time 	9400
scalar Network800.node670 	discovery_resolution_rate 	66.666666666667
scalar Network800.node480 	rate_of_requesters 	1
scalar Network800.node480 	number_of_resources 	44000
scalar Network800.node480 	time_period 	1
scalar Network800.node480 	number_of_messages 	47
scalar Network800.node480 	discovery_latency 	4716
scalar Network800.node480 	number_of_desired_resources 	20
scalar Network800.node480 	query_homogenity_rate 	33.333333333333
scalar Network800.node480 	qrecord_time 	9406
scalar Network800.node480 	discovery_resolution_rate 	66.666666666667
scalar Network800.node400 	rate_of_requesters 	1
scalar Network800.node400 	number_of_resources 	44000
scalar Network800.node400 	time_period 	1
scalar Network800.node400 	number_of_messages 	52
scalar Network800.node400 	discovery_latency 	4584
scalar Network800.node400 	number_of_desired_resources 	20
scalar Network800.node400 	query_homogenity_rate 	33.333333333333
scalar Network800.node400 	qrecord_time 	9418
scalar Network800.node400 	discovery_resolution_rate 	66.666666666667
scalar Network800.node720 	rate_of_requesters 	1
scalar Network800.node720 	number_of_resources 	44000
scalar Network800.node720 	time_period 	1
scalar Network800.node720 	number_of_messages 	46
scalar Network800.node720 	discovery_latency 	4632
scalar Network800.node720 	number_of_desired_resources 	20
scalar Network800.node720 	query_homogenity_rate 	33.333333333333
scalar Network800.node720 	qrecord_time 	9424
scalar Network800.node720 	discovery_resolution_rate 	66.666666666667
scalar Network800.node150 	rate_of_requesters 	1
scalar Network800.node150 	number_of_resources 	44000
scalar Network800.node150 	time_period 	1
scalar Network800.node150 	number_of_messages 	10
scalar Network800.node150 	discovery_latency 	4764
scalar Network800.node150 	number_of_desired_resources 	20
scalar Network800.node150 	query_homogenity_rate 	33.333333333333
scalar Network800.node150 	qrecord_time 	9454
scalar Network800.node150 	discovery_resolution_rate 	33.333333333333
scalar Network800.node790 	rate_of_requesters 	1
scalar Network800.node790 	number_of_resources 	44000
scalar Network800.node790 	time_period 	1
scalar Network800.node790 	number_of_messages 	109
scalar Network800.node790 	discovery_latency 	4764
scalar Network800.node790 	number_of_desired_resources 	20
scalar Network800.node790 	query_homogenity_rate 	33.333333333333
scalar Network800.node790 	qrecord_time 	9454
scalar Network800.node790 	discovery_resolution_rate 	66.666666666667
scalar Network800.node200 	rate_of_requesters 	1
scalar Network800.node200 	number_of_resources 	44000
scalar Network800.node200 	time_period 	1
scalar Network800.node200 	number_of_messages 	117
scalar Network800.node200 	discovery_latency 	4740
scalar Network800.node200 	number_of_desired_resources 	20
scalar Network800.node200 	query_homogenity_rate 	33.333333333333
scalar Network800.node200 	qrecord_time 	9466
scalar Network800.node200 	discovery_resolution_rate 	33.333333333333
scalar Network800.node390 	rate_of_requesters 	1
scalar Network800.node390 	number_of_resources 	44000
scalar Network800.node390 	time_period 	1
scalar Network800.node390 	number_of_messages 	31
scalar Network800.node390 	discovery_latency 	4764
scalar Network800.node390 	number_of_desired_resources 	20
scalar Network800.node390 	query_homogenity_rate 	33.333333333333
scalar Network800.node390 	qrecord_time 	9472
scalar Network800.node390 	discovery_resolution_rate 	66.666666666667
scalar Network800.node100 	rate_of_requesters 	1
scalar Network800.node100 	number_of_resources 	44000
scalar Network800.node100 	time_period 	1
scalar Network800.node100 	number_of_messages 	8
scalar Network800.node100 	discovery_latency 	4752
scalar Network800.node100 	number_of_desired_resources 	20
scalar Network800.node100 	query_homogenity_rate 	33.333333333333
scalar Network800.node100 	qrecord_time 	9472
scalar Network800.node100 	discovery_resolution_rate 	66.666666666667
scalar Network800.node70 	rate_of_requesters 	1
scalar Network800.node70 	number_of_resources 	44000
scalar Network800.node70 	time_period 	1
scalar Network800.node70 	number_of_messages 	17
scalar Network800.node70 	discovery_latency 	4764
scalar Network800.node70 	number_of_desired_resources 	20
scalar Network800.node70 	query_homogenity_rate 	33.333333333333
scalar Network800.node70 	qrecord_time 	9478
scalar Network800.node70 	discovery_resolution_rate 	33.333333333333
scalar Network800.node640 	rate_of_requesters 	1
scalar Network800.node640 	number_of_resources 	44000
scalar Network800.node640 	time_period 	1
scalar Network800.node640 	number_of_messages 	4
scalar Network800.node640 	discovery_latency 	4800
scalar Network800.node640 	number_of_desired_resources 	20
scalar Network800.node640 	query_homogenity_rate 	33.333333333333
scalar Network800.node640 	qrecord_time 	9484
scalar Network800.node640 	discovery_resolution_rate 	33.333333333333
scalar Network800.node520 	rate_of_requesters 	1
scalar Network800.node520 	number_of_resources 	44000
scalar Network800.node520 	time_period 	1
scalar Network800.node520 	number_of_messages 	10
scalar Network800.node520 	discovery_latency 	4716
scalar Network800.node520 	number_of_desired_resources 	20
scalar Network800.node520 	query_homogenity_rate 	33.333333333333
scalar Network800.node520 	qrecord_time 	9484
scalar Network800.node520 	discovery_resolution_rate 	33.333333333333
scalar Network800.node710 	rate_of_requesters 	1
scalar Network800.node710 	number_of_resources 	44000
scalar Network800.node710 	time_period 	1
scalar Network800.node710 	number_of_messages 	6
scalar Network800.node710 	discovery_latency 	4752
scalar Network800.node710 	number_of_desired_resources 	20
scalar Network800.node710 	query_homogenity_rate 	33.333333333333
scalar Network800.node710 	qrecord_time 	9484
scalar Network800.node710 	discovery_resolution_rate 	33.333333333333
scalar Network800.node0 	rate_of_requesters 	1
scalar Network800.node0 	number_of_resources 	44000
scalar Network800.node0 	time_period 	1
scalar Network800.node0 	number_of_messages 	42
scalar Network800.node0 	discovery_latency 	4824
scalar Network800.node0 	number_of_desired_resources 	20
scalar Network800.node0 	query_homogenity_rate 	33.333333333333
scalar Network800.node0 	qrecord_time 	9490
scalar Network800.node0 	discovery_resolution_rate 	66.666666666667
scalar Network800.node10 	rate_of_requesters 	1
scalar Network800.node10 	number_of_resources 	44000
scalar Network800.node10 	time_period 	1
scalar Network800.node10 	number_of_messages 	62
scalar Network800.node10 	discovery_latency 	4776
scalar Network800.node10 	number_of_desired_resources 	20
scalar Network800.node10 	query_homogenity_rate 	33.333333333333
scalar Network800.node10 	qrecord_time 	9490
scalar Network800.node10 	discovery_resolution_rate 	66.666666666667
scalar Network800.node590 	rate_of_requesters 	1
scalar Network800.node590 	number_of_resources 	44000
scalar Network800.node590 	time_period 	1
scalar Network800.node590 	number_of_messages 	72
scalar Network800.node590 	discovery_latency 	4848
scalar Network800.node590 	number_of_desired_resources 	20
scalar Network800.node590 	query_homogenity_rate 	33.333333333333
scalar Network800.node590 	qrecord_time 	9490
scalar Network800.node590 	discovery_resolution_rate 	66.666666666667
scalar Network800.node580 	rate_of_requesters 	1
scalar Network800.node580 	number_of_resources 	44000
scalar Network800.node580 	time_period 	1
scalar Network800.node580 	number_of_messages 	4
scalar Network800.node580 	discovery_latency 	4764
scalar Network800.node580 	number_of_desired_resources 	20
scalar Network800.node580 	query_homogenity_rate 	33.333333333333
scalar Network800.node580 	qrecord_time 	9502
scalar Network800.node580 	discovery_resolution_rate 	33.333333333333
scalar Network800.node370 	rate_of_requesters 	1
scalar Network800.node370 	number_of_resources 	44000
scalar Network800.node370 	time_period 	1
scalar Network800.node370 	number_of_messages 	20
scalar Network800.node370 	discovery_latency 	4836
scalar Network800.node370 	number_of_desired_resources 	20
scalar Network800.node370 	query_homogenity_rate 	33.333333333333
scalar Network800.node370 	qrecord_time 	9502
scalar Network800.node370 	discovery_resolution_rate 	33.333333333333
scalar Network800.node340 	rate_of_requesters 	1
scalar Network800.node340 	number_of_resources 	44000
scalar Network800.node340 	time_period 	1
scalar Network800.node340 	number_of_messages 	16
scalar Network800.node340 	discovery_latency 	4776
scalar Network800.node340 	number_of_desired_resources 	20
scalar Network800.node340 	query_homogenity_rate 	33.333333333333
scalar Network800.node340 	qrecord_time 	9526
scalar Network800.node340 	discovery_resolution_rate 	66.666666666667
scalar Network800.node630 	rate_of_requesters 	1
scalar Network800.node630 	number_of_resources 	44000
scalar Network800.node630 	time_period 	1
scalar Network800.node630 	number_of_messages 	5
scalar Network800.node630 	discovery_latency 	4812
scalar Network800.node630 	number_of_desired_resources 	20
scalar Network800.node630 	query_homogenity_rate 	33.333333333333
scalar Network800.node630 	qrecord_time 	9544
scalar Network800.node630 	discovery_resolution_rate 	33.333333333333
scalar Network800.node110 	rate_of_requesters 	1
scalar Network800.node110 	number_of_resources 	44000
scalar Network800.node110 	time_period 	1
scalar Network800.node110 	number_of_messages 	38
scalar Network800.node110 	discovery_latency 	4764
scalar Network800.node110 	number_of_desired_resources 	20
scalar Network800.node110 	query_homogenity_rate 	33.333333333333
scalar Network800.node110 	qrecord_time 	9544
scalar Network800.node110 	discovery_resolution_rate 	33.333333333333
scalar Network800.node210 	rate_of_requesters 	1
scalar Network800.node210 	number_of_resources 	44000
scalar Network800.node210 	time_period 	1
scalar Network800.node210 	number_of_messages 	62
scalar Network800.node210 	discovery_latency 	4848
scalar Network800.node210 	number_of_desired_resources 	20
scalar Network800.node210 	query_homogenity_rate 	33.333333333333
scalar Network800.node210 	qrecord_time 	9544
scalar Network800.node210 	discovery_resolution_rate 	33.333333333333
scalar Network800.node610 	rate_of_requesters 	1
scalar Network800.node610 	number_of_resources 	44000
scalar Network800.node610 	time_period 	1
scalar Network800.node610 	number_of_messages 	9
scalar Network800.node610 	discovery_latency 	4824
scalar Network800.node610 	number_of_desired_resources 	20
scalar Network800.node610 	query_homogenity_rate 	33.333333333333
scalar Network800.node610 	qrecord_time 	9550
scalar Network800.node610 	discovery_resolution_rate 	33.333333333333
scalar Network800.node330 	rate_of_requesters 	1
scalar Network800.node330 	number_of_resources 	44000
scalar Network800.node330 	time_period 	1
scalar Network800.node330 	number_of_messages 	56
scalar Network800.node330 	discovery_latency 	4860
scalar Network800.node330 	number_of_desired_resources 	20
scalar Network800.node330 	query_homogenity_rate 	33.333333333333
scalar Network800.node330 	qrecord_time 	9550
scalar Network800.node330 	discovery_resolution_rate 	66.666666666667
scalar Network800.node90 	rate_of_requesters 	1
scalar Network800.node90 	number_of_resources 	44000
scalar Network800.node90 	time_period 	1
scalar Network800.node90 	number_of_messages 	18
scalar Network800.node90 	discovery_latency 	4872
scalar Network800.node90 	number_of_desired_resources 	20
scalar Network800.node90 	query_homogenity_rate 	33.333333333333
scalar Network800.node90 	qrecord_time 	9562
scalar Network800.node90 	discovery_resolution_rate 	33.333333333333
scalar Network800.node300 	rate_of_requesters 	1
scalar Network800.node300 	number_of_resources 	44000
scalar Network800.node300 	time_period 	1
scalar Network800.node300 	number_of_messages 	61
scalar Network800.node300 	discovery_latency 	4848
scalar Network800.node300 	number_of_desired_resources 	20
scalar Network800.node300 	query_homogenity_rate 	33.333333333333
scalar Network800.node300 	qrecord_time 	9562
scalar Network800.node300 	discovery_resolution_rate 	33.333333333333
scalar Network800.node470 	rate_of_requesters 	1
scalar Network800.node470 	number_of_resources 	44000
scalar Network800.node470 	time_period 	1
scalar Network800.node470 	number_of_messages 	4
scalar Network800.node470 	discovery_latency 	4836
scalar Network800.node470 	number_of_desired_resources 	20
scalar Network800.node470 	query_homogenity_rate 	33.333333333333
scalar Network800.node470 	qrecord_time 	9568
scalar Network800.node470 	discovery_resolution_rate 	33.333333333333
scalar Network800.node170 	rate_of_requesters 	1
scalar Network800.node170 	number_of_resources 	44000
scalar Network800.node170 	time_period 	1
scalar Network800.node170 	number_of_messages 	167
scalar Network800.node170 	discovery_latency 	4884
scalar Network800.node170 	number_of_desired_resources 	20
scalar Network800.node170 	query_homogenity_rate 	33.333333333333
scalar Network800.node170 	qrecord_time 	9574
scalar Network800.node170 	discovery_resolution_rate 	33.333333333333
scalar Network800.node300 	rate_of_requesters 	1
scalar Network800.node300 	number_of_resources 	44000
scalar Network800.node300 	time_period 	2
scalar Network800.node300 	number_of_messages 	11
scalar Network800.node300 	discovery_latency 	4776
scalar Network800.node300 	number_of_desired_resources 	20
scalar Network800.node300 	query_homogenity_rate 	33.333333333333
scalar Network800.node300 	qrecord_time 	9577.222727596
scalar Network800.node300 	discovery_resolution_rate 	33.333333333333
scalar Network800.node30 	rate_of_requesters 	1
scalar Network800.node30 	number_of_resources 	44000
scalar Network800.node30 	time_period 	1
scalar Network800.node30 	number_of_messages 	55
scalar Network800.node30 	discovery_latency 	4848
scalar Network800.node30 	number_of_desired_resources 	20
scalar Network800.node30 	query_homogenity_rate 	33.333333333333
scalar Network800.node30 	qrecord_time 	9580
scalar Network800.node30 	discovery_resolution_rate 	66.666666666667
scalar Network800.node350 	rate_of_requesters 	1
scalar Network800.node350 	number_of_resources 	44000
scalar Network800.node350 	time_period 	1
scalar Network800.node350 	number_of_messages 	5
scalar Network800.node350 	discovery_latency 	4860
scalar Network800.node350 	number_of_desired_resources 	20
scalar Network800.node350 	query_homogenity_rate 	33.333333333333
scalar Network800.node350 	qrecord_time 	9580
scalar Network800.node350 	discovery_resolution_rate 	33.333333333333
scalar Network800.node700 	rate_of_requesters 	1
scalar Network800.node700 	number_of_resources 	44000
scalar Network800.node700 	time_period 	1
scalar Network800.node700 	number_of_messages 	44
scalar Network800.node700 	discovery_latency 	4872
scalar Network800.node700 	number_of_desired_resources 	20
scalar Network800.node700 	query_homogenity_rate 	33.333333333333
scalar Network800.node700 	qrecord_time 	9586
scalar Network800.node700 	discovery_resolution_rate 	33.333333333333
scalar Network800.node240 	rate_of_requesters 	1
scalar Network800.node240 	number_of_resources 	44000
scalar Network800.node240 	time_period 	1
scalar Network800.node240 	number_of_messages 	13
scalar Network800.node240 	discovery_latency 	4800
scalar Network800.node240 	number_of_desired_resources 	20
scalar Network800.node240 	query_homogenity_rate 	33.333333333333
scalar Network800.node240 	qrecord_time 	9586
scalar Network800.node240 	discovery_resolution_rate 	33.333333333333
scalar Network800.node20 	rate_of_requesters 	1
scalar Network800.node20 	number_of_resources 	44000
scalar Network800.node20 	time_period 	1
scalar Network800.node20 	number_of_messages 	13
scalar Network800.node20 	discovery_latency 	4908
scalar Network800.node20 	number_of_desired_resources 	20
scalar Network800.node20 	query_homogenity_rate 	33.333333333333
scalar Network800.node20 	qrecord_time 	9598
scalar Network800.node20 	discovery_resolution_rate 	33.333333333333
scalar Network800.node510 	rate_of_requesters 	1
scalar Network800.node510 	number_of_resources 	44000
scalar Network800.node510 	time_period 	1
scalar Network800.node510 	number_of_messages 	4
scalar Network800.node510 	discovery_latency 	4896
scalar Network800.node510 	number_of_desired_resources 	20
scalar Network800.node510 	query_homogenity_rate 	33.333333333333
scalar Network800.node510 	qrecord_time 	9604
scalar Network800.node510 	discovery_resolution_rate 	33.333333333333
scalar Network800.node190 	rate_of_requesters 	1
scalar Network800.node190 	number_of_resources 	44000
scalar Network800.node190 	time_period 	1
scalar Network800.node190 	number_of_messages 	5
scalar Network800.node190 	discovery_latency 	4872
scalar Network800.node190 	number_of_desired_resources 	20
scalar Network800.node190 	query_homogenity_rate 	33.333333333333
scalar Network800.node190 	qrecord_time 	9604
scalar Network800.node190 	discovery_resolution_rate 	33.333333333333
scalar Network800.node450 	rate_of_requesters 	1
scalar Network800.node450 	number_of_resources 	44000
scalar Network800.node450 	time_period 	1
scalar Network800.node450 	number_of_messages 	10
scalar Network800.node450 	discovery_latency 	4884
scalar Network800.node450 	number_of_desired_resources 	20
scalar Network800.node450 	query_homogenity_rate 	33.333333333333
scalar Network800.node450 	qrecord_time 	9610
scalar Network800.node450 	discovery_resolution_rate 	33.333333333333
scalar Network800.node410 	rate_of_requesters 	1
scalar Network800.node410 	number_of_resources 	44000
scalar Network800.node410 	time_period 	1
scalar Network800.node410 	number_of_messages 	16
scalar Network800.node410 	discovery_latency 	4896
scalar Network800.node410 	number_of_desired_resources 	20
scalar Network800.node410 	query_homogenity_rate 	33.333333333333
scalar Network800.node410 	qrecord_time 	9610
scalar Network800.node410 	discovery_resolution_rate 	33.333333333333
scalar Network800.node60 	rate_of_requesters 	1
scalar Network800.node60 	number_of_resources 	44000
scalar Network800.node60 	time_period 	1
scalar Network800.node60 	number_of_messages 	216
scalar Network800.node60 	discovery_latency 	4944
scalar Network800.node60 	number_of_desired_resources 	20
scalar Network800.node60 	query_homogenity_rate 	33.333333333333
scalar Network800.node60 	qrecord_time 	9610
scalar Network800.node60 	discovery_resolution_rate 	50
scalar Network800.node220 	rate_of_requesters 	1
scalar Network800.node220 	number_of_resources 	44000
scalar Network800.node220 	time_period 	1
scalar Network800.node220 	number_of_messages 	225
scalar Network800.node220 	discovery_latency 	4908
scalar Network800.node220 	number_of_desired_resources 	20
scalar Network800.node220 	query_homogenity_rate 	33.333333333333
scalar Network800.node220 	qrecord_time 	9622
scalar Network800.node220 	discovery_resolution_rate 	50
scalar Network800.node560 	rate_of_requesters 	1
scalar Network800.node560 	number_of_resources 	44000
scalar Network800.node560 	time_period 	1
scalar Network800.node560 	number_of_messages 	5
scalar Network800.node560 	discovery_latency 	4872
scalar Network800.node560 	number_of_desired_resources 	20
scalar Network800.node560 	query_homogenity_rate 	33.333333333333
scalar Network800.node560 	qrecord_time 	9628
scalar Network800.node560 	discovery_resolution_rate 	33.333333333333
scalar Network800.node690 	rate_of_requesters 	1
scalar Network800.node690 	number_of_resources 	44000
scalar Network800.node690 	time_period 	1
scalar Network800.node690 	number_of_messages 	53
scalar Network800.node690 	discovery_latency 	4896
scalar Network800.node690 	number_of_desired_resources 	20
scalar Network800.node690 	query_homogenity_rate 	33.333333333333
scalar Network800.node690 	qrecord_time 	9628
scalar Network800.node690 	discovery_resolution_rate 	66.666666666667
scalar Network800.node50 	rate_of_requesters 	1
scalar Network800.node50 	number_of_resources 	44000
scalar Network800.node50 	time_period 	1
scalar Network800.node50 	number_of_messages 	14
scalar Network800.node50 	discovery_latency 	4896
scalar Network800.node50 	number_of_desired_resources 	20
scalar Network800.node50 	query_homogenity_rate 	33.333333333333
scalar Network800.node50 	qrecord_time 	9634
scalar Network800.node50 	discovery_resolution_rate 	33.333333333333
scalar Network800.node280 	rate_of_requesters 	1
scalar Network800.node280 	number_of_resources 	44000
scalar Network800.node280 	time_period 	1
scalar Network800.node280 	number_of_messages 	75
scalar Network800.node280 	discovery_latency 	4812
scalar Network800.node280 	number_of_desired_resources 	20
scalar Network800.node280 	query_homogenity_rate 	33.333333333333
scalar Network800.node280 	qrecord_time 	9652
scalar Network800.node280 	discovery_resolution_rate 	33.333333333333
scalar Network800.node750 	rate_of_requesters 	1
scalar Network800.node750 	number_of_resources 	44000
scalar Network800.node750 	time_period 	1
scalar Network800.node750 	number_of_messages 	21
scalar Network800.node750 	discovery_latency 	4980
scalar Network800.node750 	number_of_desired_resources 	20
scalar Network800.node750 	query_homogenity_rate 	33.333333333333
scalar Network800.node750 	qrecord_time 	9664
scalar Network800.node750 	discovery_resolution_rate 	66.666666666667
scalar Network800.node660 	rate_of_requesters 	1
scalar Network800.node660 	number_of_resources 	44000
scalar Network800.node660 	time_period 	1
scalar Network800.node660 	number_of_messages 	9
scalar Network800.node660 	discovery_latency 	4920
scalar Network800.node660 	number_of_desired_resources 	20
scalar Network800.node660 	query_homogenity_rate 	33.333333333333
scalar Network800.node660 	qrecord_time 	9670
scalar Network800.node660 	discovery_resolution_rate 	33.333333333333
scalar Network800.node140 	rate_of_requesters 	1
scalar Network800.node140 	number_of_resources 	44000
scalar Network800.node140 	time_period 	1
scalar Network800.node140 	number_of_messages 	43
scalar Network800.node140 	discovery_latency 	4908
scalar Network800.node140 	number_of_desired_resources 	20
scalar Network800.node140 	query_homogenity_rate 	33.333333333333
scalar Network800.node140 	qrecord_time 	9682
scalar Network800.node140 	discovery_resolution_rate 	33.333333333333
scalar Network800.node160 	rate_of_requesters 	1
scalar Network800.node160 	number_of_resources 	44000
scalar Network800.node160 	time_period 	1
scalar Network800.node160 	number_of_messages 	80
scalar Network800.node160 	discovery_latency 	4908
scalar Network800.node160 	number_of_desired_resources 	20
scalar Network800.node160 	query_homogenity_rate 	33.333333333333
scalar Network800.node160 	qrecord_time 	9694
scalar Network800.node160 	discovery_resolution_rate 	33.333333333333
scalar Network800.node80 	rate_of_requesters 	1
scalar Network800.node80 	number_of_resources 	44000
scalar Network800.node80 	time_period 	1
scalar Network800.node80 	number_of_messages 	10
scalar Network800.node80 	discovery_latency 	4932
scalar Network800.node80 	number_of_desired_resources 	20
scalar Network800.node80 	query_homogenity_rate 	33.333333333333
scalar Network800.node80 	qrecord_time 	9700
scalar Network800.node80 	discovery_resolution_rate 	33.333333333333
scalar Network800.node270 	rate_of_requesters 	1
scalar Network800.node270 	number_of_resources 	44000
scalar Network800.node270 	time_period 	1
scalar Network800.node270 	number_of_messages 	14
scalar Network800.node270 	discovery_latency 	5028
scalar Network800.node270 	number_of_desired_resources 	20
scalar Network800.node270 	query_homogenity_rate 	33.333333333333
scalar Network800.node270 	qrecord_time 	9700
scalar Network800.node270 	discovery_resolution_rate 	33.333333333333
scalar Network800.node770 	rate_of_requesters 	1
scalar Network800.node770 	number_of_resources 	44000
scalar Network800.node770 	time_period 	1
scalar Network800.node770 	number_of_messages 	9
scalar Network800.node770 	discovery_latency 	4920
scalar Network800.node770 	number_of_desired_resources 	20
scalar Network800.node770 	query_homogenity_rate 	33.333333333333
scalar Network800.node770 	qrecord_time 	9730
scalar Network800.node770 	discovery_resolution_rate 	33.333333333333
scalar Network800.node40 	rate_of_requesters 	1
scalar Network800.node40 	number_of_resources 	44000
scalar Network800.node40 	time_period 	1
scalar Network800.node40 	number_of_messages 	7
scalar Network800.node40 	discovery_latency 	4956
scalar Network800.node40 	number_of_desired_resources 	20
scalar Network800.node40 	query_homogenity_rate 	33.333333333333
scalar Network800.node40 	qrecord_time 	9730
scalar Network800.node40 	discovery_resolution_rate 	33.333333333333
scalar Network800.node130 	rate_of_requesters 	1
scalar Network800.node130 	number_of_resources 	44000
scalar Network800.node130 	time_period 	1
scalar Network800.node130 	number_of_messages 	8
scalar Network800.node130 	discovery_latency 	5004
scalar Network800.node130 	number_of_desired_resources 	20
scalar Network800.node130 	query_homogenity_rate 	33.333333333333
scalar Network800.node130 	qrecord_time 	9748
scalar Network800.node130 	discovery_resolution_rate 	33.333333333333
scalar Network800.node150 	rate_of_requesters 	1
scalar Network800.node150 	number_of_resources 	44000
scalar Network800.node150 	time_period 	2
scalar Network800.node150 	number_of_messages 	57
scalar Network800.node150 	discovery_latency 	4980
scalar Network800.node150 	number_of_desired_resources 	20
scalar Network800.node150 	query_homogenity_rate 	33.333333333333
scalar Network800.node150 	qrecord_time 	9755.419032636
scalar Network800.node150 	discovery_resolution_rate 	33.333333333333
scalar Network800.node680 	rate_of_requesters 	1
scalar Network800.node680 	number_of_resources 	44000
scalar Network800.node680 	time_period 	1
scalar Network800.node680 	number_of_messages 	57
scalar Network800.node680 	discovery_latency 	5016
scalar Network800.node680 	number_of_desired_resources 	20
scalar Network800.node680 	query_homogenity_rate 	33.333333333333
scalar Network800.node680 	qrecord_time 	9766
scalar Network800.node680 	discovery_resolution_rate 	66.666666666667
scalar Network800.node760 	rate_of_requesters 	1
scalar Network800.node760 	number_of_resources 	44000
scalar Network800.node760 	time_period 	1
scalar Network800.node760 	number_of_messages 	18
scalar Network800.node760 	discovery_latency 	5064
scalar Network800.node760 	number_of_desired_resources 	20
scalar Network800.node760 	query_homogenity_rate 	33.333333333333
scalar Network800.node760 	qrecord_time 	9790
scalar Network800.node760 	discovery_resolution_rate 	33.333333333333
scalar Network800.node180 	rate_of_requesters 	1
scalar Network800.node180 	number_of_resources 	44000
scalar Network800.node180 	time_period 	1
scalar Network800.node180 	number_of_messages 	8
scalar Network800.node180 	discovery_latency 	5076
scalar Network800.node180 	number_of_desired_resources 	20
scalar Network800.node180 	query_homogenity_rate 	33.333333333333
scalar Network800.node180 	qrecord_time 	9814
scalar Network800.node180 	discovery_resolution_rate 	33.333333333333
scalar Network800.node310 	rate_of_requesters 	1
scalar Network800.node310 	number_of_resources 	44000
scalar Network800.node310 	time_period 	1
scalar Network800.node310 	number_of_messages 	55
scalar Network800.node310 	discovery_latency 	5088
scalar Network800.node310 	number_of_desired_resources 	20
scalar Network800.node310 	query_homogenity_rate 	33.333333333333
scalar Network800.node310 	qrecord_time 	9820
scalar Network800.node310 	discovery_resolution_rate 	33.333333333333
scalar Network800.node780 	rate_of_requesters 	1
scalar Network800.node780 	number_of_resources 	44000
scalar Network800.node780 	time_period 	1
scalar Network800.node780 	number_of_messages 	12
scalar Network800.node780 	discovery_latency 	5076
scalar Network800.node780 	number_of_desired_resources 	20
scalar Network800.node780 	query_homogenity_rate 	33.333333333333
scalar Network800.node780 	qrecord_time 	9886
scalar Network800.node780 	discovery_resolution_rate 	33.333333333333
scalar Network800.node20 	rate_of_requesters 	1
scalar Network800.node20 	number_of_resources 	44000
scalar Network800.node20 	time_period 	2
scalar Network800.node20 	number_of_messages 	41
scalar Network800.node20 	discovery_latency 	4836
scalar Network800.node20 	number_of_desired_resources 	20
scalar Network800.node20 	query_homogenity_rate 	33.333333333333
scalar Network800.node20 	qrecord_time 	9966.821128675
scalar Network800.node20 	discovery_resolution_rate 	66.666666666667
scalar Network800.node590 	rate_of_requesters 	1
scalar Network800.node590 	number_of_resources 	44000
scalar Network800.node590 	time_period 	2
scalar Network800.node590 	number_of_messages 	39
scalar Network800.node590 	discovery_latency 	4920
scalar Network800.node590 	number_of_desired_resources 	20
scalar Network800.node590 	query_homogenity_rate 	33.333333333333
scalar Network800.node590 	qrecord_time 	10010.445324492
scalar Network800.node590 	discovery_resolution_rate 	33.333333333333
scalar Network800.node360 	rate_of_requesters 	1
scalar Network800.node360 	number_of_resources 	44000
scalar Network800.node360 	time_period 	2
scalar Network800.node360 	number_of_messages 	4
scalar Network800.node360 	discovery_latency 	4884
scalar Network800.node360 	number_of_desired_resources 	20
scalar Network800.node360 	query_homogenity_rate 	33.333333333333
scalar Network800.node360 	qrecord_time 	10227.526024511
scalar Network800.node360 	discovery_resolution_rate 	33.333333333333
scalar Network800.node230 	rate_of_requesters 	1
scalar Network800.node230 	number_of_resources 	44000
scalar Network800.node230 	time_period 	2
scalar Network800.node230 	number_of_messages 	8
scalar Network800.node230 	discovery_latency 	5124
scalar Network800.node230 	number_of_desired_resources 	20
scalar Network800.node230 	query_homogenity_rate 	33.333333333333
scalar Network800.node230 	qrecord_time 	10405.909484543
scalar Network800.node230 	discovery_resolution_rate 	33.333333333333
scalar Network800.node590 	rate_of_requesters 	1
scalar Network800.node590 	number_of_resources 	44000
scalar Network800.node590 	time_period 	3
scalar Network800.node590 	number_of_messages 	50
scalar Network800.node590 	discovery_latency 	4872
scalar Network800.node590 	number_of_desired_resources 	20
scalar Network800.node590 	query_homogenity_rate 	33.333333333333
scalar Network800.node590 	qrecord_time 	11027.883250804
scalar Network800.node590 	discovery_resolution_rate 	33.333333333333
scalar Network800.node460 	rate_of_requesters 	1
scalar Network800.node460 	number_of_resources 	44000
scalar Network800.node460 	time_period 	1
scalar Network800.node460 	number_of_messages 	2
scalar Network800.node460 	discovery_latency 	6630
scalar Network800.node460 	number_of_desired_resources 	20
scalar Network800.node460 	query_homogenity_rate 	33.333333333333
scalar Network800.node460 	qrecord_time 	11314
scalar Network800.node460 	discovery_resolution_rate 	0
scalar Network800.node600 	rate_of_requesters 	1
scalar Network800.node600 	number_of_resources 	44000
scalar Network800.node600 	time_period 	1
scalar Network800.node600 	number_of_messages 	2
scalar Network800.node600 	discovery_latency 	6630
scalar Network800.node600 	number_of_desired_resources 	20
scalar Network800.node600 	query_homogenity_rate 	33.333333333333
scalar Network800.node600 	qrecord_time 	11356
scalar Network800.node600 	discovery_resolution_rate 	0
scalar Network800.node430 	rate_of_requesters 	1
scalar Network800.node430 	number_of_resources 	44000
scalar Network800.node430 	time_period 	1
scalar Network800.node430 	number_of_messages 	2
scalar Network800.node430 	discovery_latency 	6618
scalar Network800.node430 	number_of_desired_resources 	20
scalar Network800.node430 	query_homogenity_rate 	33.333333333333
scalar Network800.node430 	qrecord_time 	11422
scalar Network800.node430 	discovery_resolution_rate 	0
scalar Network800.node120 	rate_of_requesters 	1
scalar Network800.node120 	number_of_resources 	44000
scalar Network800.node120 	time_period 	1
scalar Network800.node120 	number_of_messages 	2
scalar Network800.node120 	discovery_latency 	6594
scalar Network800.node120 	number_of_desired_resources 	20
scalar Network800.node120 	query_homogenity_rate 	33.333333333333
scalar Network800.node120 	qrecord_time 	11452
scalar Network800.node120 	discovery_resolution_rate 	0
scalar Network800.node650 	rate_of_requesters 	1
scalar Network800.node650 	number_of_resources 	44000
scalar Network800.node650 	time_period 	1
scalar Network800.node650 	number_of_messages 	2
scalar Network800.node650 	discovery_latency 	6570
scalar Network800.node650 	number_of_desired_resources 	20
scalar Network800.node650 	query_homogenity_rate 	33.333333333333
scalar Network800.node650 	qrecord_time 	11464
scalar Network800.node650 	discovery_resolution_rate 	0
scalar Network800.node620 	rate_of_requesters 	1
scalar Network800.node620 	number_of_resources 	44000
scalar Network800.node620 	time_period 	1
scalar Network800.node620 	number_of_messages 	41
scalar Network800.node620 	discovery_latency 	6630
scalar Network800.node620 	number_of_desired_resources 	20
scalar Network800.node620 	query_homogenity_rate 	33.333333333333
scalar Network800.node620 	qrecord_time 	11470
scalar Network800.node620 	discovery_resolution_rate 	33.333333333333
scalar Network800.node550 	rate_of_requesters 	1
scalar Network800.node550 	number_of_resources 	44000
scalar Network800.node550 	time_period 	1
scalar Network800.node550 	number_of_messages 	0
scalar Network800.node550 	discovery_latency 	6762
scalar Network800.node550 	number_of_desired_resources 	20
scalar Network800.node550 	query_homogenity_rate 	33.333333333333
scalar Network800.node550 	qrecord_time 	11482
scalar Network800.node550 	discovery_resolution_rate 	0
scalar Network800.node320 	rate_of_requesters 	1
scalar Network800.node320 	number_of_resources 	44000
scalar Network800.node320 	time_period 	1
scalar Network800.node320 	number_of_messages 	356
scalar Network800.node320 	discovery_latency 	6702
scalar Network800.node320 	number_of_desired_resources 	20
scalar Network800.node320 	query_homogenity_rate 	33.333333333333
scalar Network800.node320 	qrecord_time 	11494
scalar Network800.node320 	discovery_resolution_rate 	50
scalar Network800.node440 	rate_of_requesters 	1
scalar Network800.node440 	number_of_resources 	44000
scalar Network800.node440 	time_period 	1
scalar Network800.node440 	number_of_messages 	2
scalar Network800.node440 	discovery_latency 	6702
scalar Network800.node440 	number_of_desired_resources 	20
scalar Network800.node440 	query_homogenity_rate 	33.333333333333
scalar Network800.node440 	qrecord_time 	11506
scalar Network800.node440 	discovery_resolution_rate 	0
scalar Network800.node730 	rate_of_requesters 	1
scalar Network800.node730 	number_of_resources 	44000
scalar Network800.node730 	time_period 	1
scalar Network800.node730 	number_of_messages 	2
scalar Network800.node730 	discovery_latency 	6630
scalar Network800.node730 	number_of_desired_resources 	20
scalar Network800.node730 	query_homogenity_rate 	33.333333333333
scalar Network800.node730 	qrecord_time 	11524
scalar Network800.node730 	discovery_resolution_rate 	0
scalar Network800.node380 	rate_of_requesters 	1
scalar Network800.node380 	number_of_resources 	44000
scalar Network800.node380 	time_period 	1
scalar Network800.node380 	number_of_messages 	2
scalar Network800.node380 	discovery_latency 	6726
scalar Network800.node380 	number_of_desired_resources 	20
scalar Network800.node380 	query_homogenity_rate 	33.333333333333
scalar Network800.node380 	qrecord_time 	11530
scalar Network800.node380 	discovery_resolution_rate 	0
scalar Network800.node250 	rate_of_requesters 	1
scalar Network800.node250 	number_of_resources 	44000
scalar Network800.node250 	time_period 	1
scalar Network800.node250 	number_of_messages 	209
scalar Network800.node250 	discovery_latency 	6738
scalar Network800.node250 	number_of_desired_resources 	20
scalar Network800.node250 	query_homogenity_rate 	33.333333333333
scalar Network800.node250 	qrecord_time 	11530
scalar Network800.node250 	discovery_resolution_rate 	16.666666666667
scalar Network800.node530 	rate_of_requesters 	1
scalar Network800.node530 	number_of_resources 	44000
scalar Network800.node530 	time_period 	1
scalar Network800.node530 	number_of_messages 	353
scalar Network800.node530 	discovery_latency 	6726
scalar Network800.node530 	number_of_desired_resources 	20
scalar Network800.node530 	query_homogenity_rate 	33.333333333333
scalar Network800.node530 	qrecord_time 	11536
scalar Network800.node530 	discovery_resolution_rate 	16.666666666667
scalar Network800.node260 	rate_of_requesters 	1
scalar Network800.node260 	number_of_resources 	44000
scalar Network800.node260 	time_period 	1
scalar Network800.node260 	number_of_messages 	353
scalar Network800.node260 	discovery_latency 	6750
scalar Network800.node260 	number_of_desired_resources 	20
scalar Network800.node260 	query_homogenity_rate 	33.333333333333
scalar Network800.node260 	qrecord_time 	11554
scalar Network800.node260 	discovery_resolution_rate 	16.666666666667
scalar Network800.node480 	rate_of_requesters 	1
scalar Network800.node480 	number_of_resources 	44000
scalar Network800.node480 	time_period 	2
scalar Network800.node480 	number_of_messages 	2
scalar Network800.node480 	discovery_latency 	6390
scalar Network800.node480 	number_of_desired_resources 	20
scalar Network800.node480 	query_homogenity_rate 	33.333333333333
scalar Network800.node480 	qrecord_time 	11596.339653705
scalar Network800.node480 	discovery_resolution_rate 	0
scalar Network800.node570 	rate_of_requesters 	1
scalar Network800.node570 	number_of_resources 	44000
scalar Network800.node570 	time_period 	2
scalar Network800.node570 	number_of_messages 	2
scalar Network800.node570 	discovery_latency 	6666
scalar Network800.node570 	number_of_desired_resources 	20
scalar Network800.node570 	query_homogenity_rate 	33.333333333333
scalar Network800.node570 	qrecord_time 	11928.973013961
scalar Network800.node570 	discovery_resolution_rate 	0
scalar Network800.node580 	rate_of_requesters 	1
scalar Network800.node580 	number_of_resources 	44000
scalar Network800.node580 	time_period 	2
scalar Network800.node580 	number_of_messages 	2
scalar Network800.node580 	discovery_latency 	6726
scalar Network800.node580 	number_of_desired_resources 	20
scalar Network800.node580 	query_homogenity_rate 	33.333333333333
scalar Network800.node580 	qrecord_time 	11945.00800535
scalar Network800.node580 	discovery_resolution_rate 	0
scalar Network800.node450 	rate_of_requesters 	1
scalar Network800.node450 	number_of_resources 	44000
scalar Network800.node450 	time_period 	3
scalar Network800.node450 	number_of_messages 	2
scalar Network800.node450 	discovery_latency 	6762
scalar Network800.node450 	number_of_desired_resources 	20
scalar Network800.node450 	query_homogenity_rate 	33.333333333333
scalar Network800.node450 	qrecord_time 	11960.187325697
scalar Network800.node450 	discovery_resolution_rate 	0
scalar Network800.node620 	rate_of_requesters 	1
scalar Network800.node620 	number_of_resources 	44000
scalar Network800.node620 	time_period 	2
scalar Network800.node620 	number_of_messages 	9
scalar Network800.node620 	discovery_latency 	6810
scalar Network800.node620 	number_of_desired_resources 	20
scalar Network800.node620 	query_homogenity_rate 	33.333333333333
scalar Network800.node620 	qrecord_time 	11961.275767042
scalar Network800.node620 	discovery_resolution_rate 	33.333333333333
scalar Network800.node150 	rate_of_requesters 	1
scalar Network800.node150 	number_of_resources 	44000
scalar Network800.node150 	time_period 	3
scalar Network800.node150 	number_of_messages 	2
scalar Network800.node150 	discovery_latency 	6678
scalar Network800.node150 	number_of_desired_resources 	20
scalar Network800.node150 	query_homogenity_rate 	33.333333333333
scalar Network800.node150 	qrecord_time 	11969.64546048
scalar Network800.node150 	discovery_resolution_rate 	0
scalar Network800.node130 	rate_of_requesters 	1
scalar Network800.node130 	number_of_resources 	44000
scalar Network800.node130 	time_period 	2
scalar Network800.node130 	number_of_messages 	0
scalar Network800.node130 	discovery_latency 	6666
scalar Network800.node130 	number_of_desired_resources 	20
scalar Network800.node130 	query_homogenity_rate 	33.333333333333
scalar Network800.node130 	qrecord_time 	12005.386011888
scalar Network800.node130 	discovery_resolution_rate 	0
scalar Network800.node110 	rate_of_requesters 	1
scalar Network800.node110 	number_of_resources 	44000
scalar Network800.node110 	time_period 	2
scalar Network800.node110 	number_of_messages 	2
scalar Network800.node110 	discovery_latency 	6630
scalar Network800.node110 	number_of_desired_resources 	20
scalar Network800.node110 	query_homogenity_rate 	33.333333333333
scalar Network800.node110 	qrecord_time 	12028.570789349
scalar Network800.node110 	discovery_resolution_rate 	0
scalar Network800.node20 	rate_of_requesters 	1
scalar Network800.node20 	number_of_resources 	44000
scalar Network800.node20 	time_period 	3
scalar Network800.node20 	number_of_messages 	2
scalar Network800.node20 	discovery_latency 	6678
scalar Network800.node20 	number_of_desired_resources 	20
scalar Network800.node20 	query_homogenity_rate 	33.333333333333
scalar Network800.node20 	qrecord_time 	12102.497107064
scalar Network800.node20 	discovery_resolution_rate 	0
scalar Network800.node450 	rate_of_requesters 	1
scalar Network800.node450 	number_of_resources 	44000
scalar Network800.node450 	time_period 	2
scalar Network800.node450 	number_of_messages 	2
scalar Network800.node450 	discovery_latency 	6990
scalar Network800.node450 	number_of_desired_resources 	20
scalar Network800.node450 	query_homogenity_rate 	33.333333333333
scalar Network800.node450 	qrecord_time 	12154.410925456
scalar Network800.node450 	discovery_resolution_rate 	0
scalar Network800.node250 	rate_of_requesters 	1
scalar Network800.node250 	number_of_resources 	44000
scalar Network800.node250 	time_period 	2
scalar Network800.node250 	number_of_messages 	2
scalar Network800.node250 	discovery_latency 	6810
scalar Network800.node250 	number_of_desired_resources 	20
scalar Network800.node250 	query_homogenity_rate 	33.333333333333
scalar Network800.node250 	qrecord_time 	12315.049117253
scalar Network800.node250 	discovery_resolution_rate 	0
scalar Network800.node760 	rate_of_requesters 	1
scalar Network800.node760 	number_of_resources 	44000
scalar Network800.node760 	time_period 	2
scalar Network800.node760 	number_of_messages 	2
scalar Network800.node760 	discovery_latency 	6870
scalar Network800.node760 	number_of_desired_resources 	20
scalar Network800.node760 	query_homogenity_rate 	33.333333333333
scalar Network800.node760 	qrecord_time 	12340.158049045
scalar Network800.node760 	discovery_resolution_rate 	0
scalar Network800.node70 	rate_of_requesters 	1
scalar Network800.node70 	number_of_resources 	44000
scalar Network800.node70 	time_period 	2
scalar Network800.node70 	number_of_messages 	2
scalar Network800.node70 	discovery_latency 	6714
scalar Network800.node70 	number_of_desired_resources 	20
scalar Network800.node70 	query_homogenity_rate 	33.333333333333
scalar Network800.node70 	qrecord_time 	12386.824654906
scalar Network800.node70 	discovery_resolution_rate 	0
scalar Network800.node540 	rate_of_requesters 	1
scalar Network800.node540 	number_of_resources 	44000
scalar Network800.node540 	time_period 	2
scalar Network800.node540 	number_of_messages 	2
scalar Network800.node540 	discovery_latency 	6870
scalar Network800.node540 	number_of_desired_resources 	20
scalar Network800.node540 	query_homogenity_rate 	33.333333333333
scalar Network800.node540 	qrecord_time 	12491.429213666
scalar Network800.node540 	discovery_resolution_rate 	0
scalar Network800.node500 	rate_of_requesters 	1
scalar Network800.node500 	number_of_resources 	44000
scalar Network800.node500 	time_period 	2
scalar Network800.node500 	number_of_messages 	2
scalar Network800.node500 	discovery_latency 	6654
scalar Network800.node500 	number_of_desired_resources 	20
scalar Network800.node500 	query_homogenity_rate 	33.333333333333
scalar Network800.node500 	qrecord_time 	12573.543812247
scalar Network800.node500 	discovery_resolution_rate 	0
scalar Network800.node190 	rate_of_requesters 	1
scalar Network800.node190 	number_of_resources 	44000
scalar Network800.node190 	time_period 	2
scalar Network800.node190 	number_of_messages 	2
scalar Network800.node190 	discovery_latency 	6990
scalar Network800.node190 	number_of_desired_resources 	20
scalar Network800.node190 	query_homogenity_rate 	33.333333333333
scalar Network800.node190 	qrecord_time 	12618.208667754
scalar Network800.node190 	discovery_resolution_rate 	0
scalar Network800.node560 	rate_of_requesters 	1
scalar Network800.node560 	number_of_resources 	44000
scalar Network800.node560 	time_period 	2
scalar Network800.node560 	number_of_messages 	2
scalar Network800.node560 	discovery_latency 	6882
scalar Network800.node560 	number_of_desired_resources 	20
scalar Network800.node560 	query_homogenity_rate 	33.333333333333
scalar Network800.node560 	qrecord_time 	12625.078250011
scalar Network800.node560 	discovery_resolution_rate 	0
scalar Network800.node320 	rate_of_requesters 	1
scalar Network800.node320 	number_of_resources 	44000
scalar Network800.node320 	time_period 	2
scalar Network800.node320 	number_of_messages 	2
scalar Network800.node320 	discovery_latency 	6966
scalar Network800.node320 	number_of_desired_resources 	20
scalar Network800.node320 	query_homogenity_rate 	33.333333333333
scalar Network800.node320 	qrecord_time 	12638.39715475
scalar Network800.node320 	discovery_resolution_rate 	0
scalar Network800.node350 	rate_of_requesters 	1
scalar Network800.node350 	number_of_resources 	44000
scalar Network800.node350 	time_period 	2
scalar Network800.node350 	number_of_messages 	0
scalar Network800.node350 	discovery_latency 	6798
scalar Network800.node350 	number_of_desired_resources 	20
scalar Network800.node350 	query_homogenity_rate 	33.333333333333
scalar Network800.node350 	qrecord_time 	12695.978179569
scalar Network800.node350 	discovery_resolution_rate 	0
scalar Network800.node740 	rate_of_requesters 	1
scalar Network800.node740 	number_of_resources 	44000
scalar Network800.node740 	time_period 	2
scalar Network800.node740 	number_of_messages 	2
scalar Network800.node740 	discovery_latency 	6858
scalar Network800.node740 	number_of_desired_resources 	20
scalar Network800.node740 	query_homogenity_rate 	33.333333333333
scalar Network800.node740 	qrecord_time 	12697.879635142
scalar Network800.node740 	discovery_resolution_rate 	0
scalar Network800.node10 	rate_of_requesters 	1
scalar Network800.node10 	number_of_resources 	44000
scalar Network800.node10 	time_period 	2
scalar Network800.node10 	number_of_messages 	2
scalar Network800.node10 	discovery_latency 	6798
scalar Network800.node10 	number_of_desired_resources 	20
scalar Network800.node10 	query_homogenity_rate 	33.333333333333
scalar Network800.node10 	qrecord_time 	12755.916743009
scalar Network800.node10 	discovery_resolution_rate 	0
scalar Network800.node690 	rate_of_requesters 	1
scalar Network800.node690 	number_of_resources 	44000
scalar Network800.node690 	time_period 	2
scalar Network800.node690 	number_of_messages 	2
scalar Network800.node690 	discovery_latency 	6750
scalar Network800.node690 	number_of_desired_resources 	20
scalar Network800.node690 	query_homogenity_rate 	33.333333333333
scalar Network800.node690 	qrecord_time 	12763.683395201
scalar Network800.node690 	discovery_resolution_rate 	0
scalar Network800.node250 	rate_of_requesters 	1
scalar Network800.node250 	number_of_resources 	44000
scalar Network800.node250 	time_period 	3
scalar Network800.node250 	number_of_messages 	2
scalar Network800.node250 	discovery_latency 	6750
scalar Network800.node250 	number_of_desired_resources 	20
scalar Network800.node250 	query_homogenity_rate 	33.333333333333
scalar Network800.node250 	qrecord_time 	12991.287093909
scalar Network800.node250 	discovery_resolution_rate 	0
scalar Network800.node280 	rate_of_requesters 	1
scalar Network800.node280 	number_of_resources 	44000
scalar Network800.node280 	time_period 	2
scalar Network800.node280 	number_of_messages 	2
scalar Network800.node280 	discovery_latency 	6690
scalar Network800.node280 	number_of_desired_resources 	20
scalar Network800.node280 	query_homogenity_rate 	33.333333333333
scalar Network800.node280 	qrecord_time 	13002.251618335
scalar Network800.node280 	discovery_resolution_rate 	0
scalar Network800.node700 	rate_of_requesters 	1
scalar Network800.node700 	number_of_resources 	44000
scalar Network800.node700 	time_period 	2
scalar Network800.node700 	number_of_messages 	2
scalar Network800.node700 	discovery_latency 	6918
scalar Network800.node700 	number_of_desired_resources 	20
scalar Network800.node700 	query_homogenity_rate 	33.333333333333
scalar Network800.node700 	qrecord_time 	13005.058819182
scalar Network800.node700 	discovery_resolution_rate 	0
scalar Network800.node790 	rate_of_requesters 	1
scalar Network800.node790 	number_of_resources 	44000
scalar Network800.node790 	time_period 	3
scalar Network800.node790 	number_of_messages 	339
scalar Network800.node790 	discovery_latency 	6366
scalar Network800.node790 	number_of_desired_resources 	20
scalar Network800.node790 	query_homogenity_rate 	33.333333333333
scalar Network800.node790 	qrecord_time 	13032.434488621
scalar Network800.node790 	discovery_resolution_rate 	33.333333333333
scalar Network800.node770 	rate_of_requesters 	1
scalar Network800.node770 	number_of_resources 	44000
scalar Network800.node770 	time_period 	2
scalar Network800.node770 	number_of_messages 	2
scalar Network800.node770 	discovery_latency 	6666
scalar Network800.node770 	number_of_desired_resources 	20
scalar Network800.node770 	query_homogenity_rate 	33.333333333333
scalar Network800.node770 	qrecord_time 	13056.349050832
scalar Network800.node770 	discovery_resolution_rate 	0
scalar Network800.node390 	rate_of_requesters 	1
scalar Network800.node390 	number_of_resources 	44000
scalar Network800.node390 	time_period 	2
scalar Network800.node390 	number_of_messages 	2
scalar Network800.node390 	discovery_latency 	6894
scalar Network800.node390 	number_of_desired_resources 	20
scalar Network800.node390 	query_homogenity_rate 	33.333333333333
scalar Network800.node390 	qrecord_time 	13065.94204527
scalar Network800.node390 	discovery_resolution_rate 	0
scalar Network800.node790 	rate_of_requesters 	1
scalar Network800.node790 	number_of_resources 	44000
scalar Network800.node790 	time_period 	2
scalar Network800.node790 	number_of_messages 	2
scalar Network800.node790 	discovery_latency 	6534
scalar Network800.node790 	number_of_desired_resources 	20
scalar Network800.node790 	query_homogenity_rate 	33.333333333333
scalar Network800.node790 	qrecord_time 	13103.613480529
scalar Network800.node790 	discovery_resolution_rate 	0
scalar Network800.node380 	rate_of_requesters 	1
scalar Network800.node380 	number_of_resources 	44000
scalar Network800.node380 	time_period 	2
scalar Network800.node380 	number_of_messages 	2
scalar Network800.node380 	discovery_latency 	6702
scalar Network800.node380 	number_of_desired_resources 	20
scalar Network800.node380 	query_homogenity_rate 	33.333333333333
scalar Network800.node380 	qrecord_time 	13122.310962803
scalar Network800.node380 	discovery_resolution_rate 	0
scalar Network800.node410 	rate_of_requesters 	1
scalar Network800.node410 	number_of_resources 	44000
scalar Network800.node410 	time_period 	2
scalar Network800.node410 	number_of_messages 	2
scalar Network800.node410 	discovery_latency 	6918
scalar Network800.node410 	number_of_desired_resources 	20
scalar Network800.node410 	query_homogenity_rate 	33.333333333333
scalar Network800.node410 	qrecord_time 	13131.501887688
scalar Network800.node410 	discovery_resolution_rate 	0
scalar Network800.node510 	rate_of_requesters 	1
scalar Network800.node510 	number_of_resources 	44000
scalar Network800.node510 	time_period 	2
scalar Network800.node510 	number_of_messages 	2
scalar Network800.node510 	discovery_latency 	6786
scalar Network800.node510 	number_of_desired_resources 	20
scalar Network800.node510 	query_homogenity_rate 	33.333333333333
scalar Network800.node510 	qrecord_time 	13149.60375254
scalar Network800.node510 	discovery_resolution_rate 	0
scalar Network800.node10 	rate_of_requesters 	1
scalar Network800.node10 	number_of_resources 	44000
scalar Network800.node10 	time_period 	3
scalar Network800.node10 	number_of_messages 	8
scalar Network800.node10 	discovery_latency 	4956
scalar Network800.node10 	number_of_desired_resources 	20
scalar Network800.node10 	query_homogenity_rate 	33.333333333333
scalar Network800.node10 	qrecord_time 	13198.535174543
scalar Network800.node10 	discovery_resolution_rate 	33.333333333333
scalar Network800.node30 	rate_of_requesters 	1
scalar Network800.node30 	number_of_resources 	44000
scalar Network800.node30 	time_period 	2
scalar Network800.node30 	number_of_messages 	2
scalar Network800.node30 	discovery_latency 	6702
scalar Network800.node30 	number_of_desired_resources 	20
scalar Network800.node30 	query_homogenity_rate 	33.333333333333
scalar Network800.node30 	qrecord_time 	13230.471047633
scalar Network800.node30 	discovery_resolution_rate 	0
scalar Network800.node200 	rate_of_requesters 	1
scalar Network800.node200 	number_of_resources 	44000
scalar Network800.node200 	time_period 	2
scalar Network800.node200 	number_of_messages 	2
scalar Network800.node200 	discovery_latency 	6954
scalar Network800.node200 	number_of_desired_resources 	20
scalar Network800.node200 	query_homogenity_rate 	33.333333333333
scalar Network800.node200 	qrecord_time 	13251.617143831
scalar Network800.node200 	discovery_resolution_rate 	0
scalar Network800.node280 	rate_of_requesters 	1
scalar Network800.node280 	number_of_resources 	44000
scalar Network800.node280 	time_period 	3
scalar Network800.node280 	number_of_messages 	2
scalar Network800.node280 	discovery_latency 	6846
scalar Network800.node280 	number_of_desired_resources 	20
scalar Network800.node280 	query_homogenity_rate 	33.333333333333
scalar Network800.node280 	qrecord_time 	13351.439042088
scalar Network800.node280 	discovery_resolution_rate 	0
scalar Network800.node120 	rate_of_requesters 	1
scalar Network800.node120 	number_of_resources 	44000
scalar Network800.node120 	time_period 	2
scalar Network800.node120 	number_of_messages 	2
scalar Network800.node120 	discovery_latency 	6846
scalar Network800.node120 	number_of_desired_resources 	20
scalar Network800.node120 	query_homogenity_rate 	33.333333333333
scalar Network800.node120 	qrecord_time 	13359.232047434
scalar Network800.node120 	discovery_resolution_rate 	0
scalar Network800.node110 	rate_of_requesters 	1
scalar Network800.node110 	number_of_resources 	44000
scalar Network800.node110 	time_period 	3
scalar Network800.node110 	number_of_messages 	2
scalar Network800.node110 	discovery_latency 	6870
scalar Network800.node110 	number_of_desired_resources 	20
scalar Network800.node110 	query_homogenity_rate 	33.333333333333
scalar Network800.node110 	qrecord_time 	13385.282167516
scalar Network800.node110 	discovery_resolution_rate 	0
scalar Network800.node180 	rate_of_requesters 	1
scalar Network800.node180 	number_of_resources 	44000
scalar Network800.node180 	time_period 	2
scalar Network800.node180 	number_of_messages 	2
scalar Network800.node180 	discovery_latency 	6726
scalar Network800.node180 	number_of_desired_resources 	20
scalar Network800.node180 	query_homogenity_rate 	33.333333333333
scalar Network800.node180 	qrecord_time 	13408.69392332
scalar Network800.node180 	discovery_resolution_rate 	0
scalar Network800.node660 	rate_of_requesters 	1
scalar Network800.node660 	number_of_resources 	44000
scalar Network800.node660 	time_period 	2
scalar Network800.node660 	number_of_messages 	2
scalar Network800.node660 	discovery_latency 	6690
scalar Network800.node660 	number_of_desired_resources 	20
scalar Network800.node660 	query_homogenity_rate 	33.333333333333
scalar Network800.node660 	qrecord_time 	13414.423556607
scalar Network800.node660 	discovery_resolution_rate 	0
scalar Network800.node540 	rate_of_requesters 	1
scalar Network800.node540 	number_of_resources 	44000
scalar Network800.node540 	time_period 	4
scalar Network800.node540 	number_of_messages 	2
scalar Network800.node540 	discovery_latency 	6738
scalar Network800.node540 	number_of_desired_resources 	20
scalar Network800.node540 	query_homogenity_rate 	33.333333333333
scalar Network800.node540 	qrecord_time 	13439.476386002
scalar Network800.node540 	discovery_resolution_rate 	0
scalar Network800.node770 	rate_of_requesters 	1
scalar Network800.node770 	number_of_resources 	44000
scalar Network800.node770 	time_period 	3
scalar Network800.node770 	number_of_messages 	2
scalar Network800.node770 	discovery_latency 	6738
scalar Network800.node770 	number_of_desired_resources 	20
scalar Network800.node770 	query_homogenity_rate 	33.333333333333
scalar Network800.node770 	qrecord_time 	13460.40963749
scalar Network800.node770 	discovery_resolution_rate 	0
scalar Network800.node540 	rate_of_requesters 	1
scalar Network800.node540 	number_of_resources 	44000
scalar Network800.node540 	time_period 	3
scalar Network800.node540 	number_of_messages 	2
scalar Network800.node540 	discovery_latency 	6822
scalar Network800.node540 	number_of_desired_resources 	20
scalar Network800.node540 	query_homogenity_rate 	33.333333333333
scalar Network800.node540 	qrecord_time 	13467.7956896
scalar Network800.node540 	discovery_resolution_rate 	0
scalar Network800.node420 	rate_of_requesters 	1
scalar Network800.node420 	number_of_resources 	44000
scalar Network800.node420 	time_period 	2
scalar Network800.node420 	number_of_messages 	2
scalar Network800.node420 	discovery_latency 	6750
scalar Network800.node420 	number_of_desired_resources 	20
scalar Network800.node420 	query_homogenity_rate 	33.333333333333
scalar Network800.node420 	qrecord_time 	13482.11315303
scalar Network800.node420 	discovery_resolution_rate 	0
scalar Network800.node670 	rate_of_requesters 	1
scalar Network800.node670 	number_of_resources 	44000
scalar Network800.node670 	time_period 	2
scalar Network800.node670 	number_of_messages 	54
scalar Network800.node670 	discovery_latency 	468
scalar Network800.node670 	number_of_desired_resources 	20
scalar Network800.node670 	query_homogenity_rate 	33.333333333333
scalar Network800.node670 	qrecord_time 	13482.62858066
scalar Network800.node670 	discovery_resolution_rate 	100
scalar Network800.node70 	rate_of_requesters 	1
scalar Network800.node70 	number_of_resources 	44000
scalar Network800.node70 	time_period 	3
scalar Network800.node70 	number_of_messages 	2
scalar Network800.node70 	discovery_latency 	6702
scalar Network800.node70 	number_of_desired_resources 	20
scalar Network800.node70 	query_homogenity_rate 	33.333333333333
scalar Network800.node70 	qrecord_time 	13492.754730649
scalar Network800.node70 	discovery_resolution_rate 	0
scalar Network800.node410 	rate_of_requesters 	1
scalar Network800.node410 	number_of_resources 	44000
scalar Network800.node410 	time_period 	3
scalar Network800.node410 	number_of_messages 	2
scalar Network800.node410 	discovery_latency 	6918
scalar Network800.node410 	number_of_desired_resources 	20
scalar Network800.node410 	query_homogenity_rate 	33.333333333333
scalar Network800.node410 	qrecord_time 	13526.77720932
scalar Network800.node410 	discovery_resolution_rate 	0
scalar Network800.node720 	rate_of_requesters 	1
scalar Network800.node720 	number_of_resources 	44000
scalar Network800.node720 	time_period 	2
scalar Network800.node720 	number_of_messages 	2
scalar Network800.node720 	discovery_latency 	6702
scalar Network800.node720 	number_of_desired_resources 	20
scalar Network800.node720 	query_homogenity_rate 	33.333333333333
scalar Network800.node720 	qrecord_time 	13575.495272233
scalar Network800.node720 	discovery_resolution_rate 	0
scalar Network800.node290 	rate_of_requesters 	1
scalar Network800.node290 	number_of_resources 	44000
scalar Network800.node290 	time_period 	2
scalar Network800.node290 	number_of_messages 	2
scalar Network800.node290 	discovery_latency 	6738
scalar Network800.node290 	number_of_desired_resources 	20
scalar Network800.node290 	query_homogenity_rate 	33.333333333333
scalar Network800.node290 	qrecord_time 	13604.881854792
scalar Network800.node290 	discovery_resolution_rate 	0
scalar Network800.node580 	rate_of_requesters 	1
scalar Network800.node580 	number_of_resources 	44000
scalar Network800.node580 	time_period 	3
scalar Network800.node580 	number_of_messages 	2
scalar Network800.node580 	discovery_latency 	6606
scalar Network800.node580 	number_of_desired_resources 	20
scalar Network800.node580 	query_homogenity_rate 	33.333333333333
scalar Network800.node580 	qrecord_time 	13647.523671511
scalar Network800.node580 	discovery_resolution_rate 	0
scalar Network800.node100 	rate_of_requesters 	1
scalar Network800.node100 	number_of_resources 	44000
scalar Network800.node100 	time_period 	2
scalar Network800.node100 	number_of_messages 	0
scalar Network800.node100 	discovery_latency 	6702
scalar Network800.node100 	number_of_desired_resources 	20
scalar Network800.node100 	query_homogenity_rate 	33.333333333333
scalar Network800.node100 	qrecord_time 	13680.864527342
scalar Network800.node100 	discovery_resolution_rate 	0
scalar Network800.node540 	rate_of_requesters 	1
scalar Network800.node540 	number_of_resources 	44000
scalar Network800.node540 	time_period 	5
scalar Network800.node540 	number_of_messages 	2
scalar Network800.node540 	discovery_latency 	6810
scalar Network800.node540 	number_of_desired_resources 	20
scalar Network800.node540 	query_homogenity_rate 	33.333333333333
scalar Network800.node540 	qrecord_time 	13730.623559823
scalar Network800.node540 	discovery_resolution_rate 	0
scalar Network800.node320 	rate_of_requesters 	1
scalar Network800.node320 	number_of_resources 	44000
scalar Network800.node320 	time_period 	3
scalar Network800.node320 	number_of_messages 	2
scalar Network800.node320 	discovery_latency 	6702
scalar Network800.node320 	number_of_desired_resources 	20
scalar Network800.node320 	query_homogenity_rate 	33.333333333333
scalar Network800.node320 	qrecord_time 	13784.451246142
scalar Network800.node320 	discovery_resolution_rate 	0
scalar Network800.node530 	rate_of_requesters 	1
scalar Network800.node530 	number_of_resources 	44000
scalar Network800.node530 	time_period 	2
scalar Network800.node530 	number_of_messages 	2
scalar Network800.node530 	discovery_latency 	6738
scalar Network800.node530 	number_of_desired_resources 	20
scalar Network800.node530 	query_homogenity_rate 	33.333333333333
scalar Network800.node530 	qrecord_time 	13908.518354691
scalar Network800.node530 	discovery_resolution_rate 	0
scalar Network800.node380 	rate_of_requesters 	1
scalar Network800.node380 	number_of_resources 	44000
scalar Network800.node380 	time_period 	3
scalar Network800.node380 	number_of_messages 	2
scalar Network800.node380 	discovery_latency 	6930
scalar Network800.node380 	number_of_desired_resources 	20
scalar Network800.node380 	query_homogenity_rate 	33.333333333333
scalar Network800.node380 	qrecord_time 	13924.167546628
scalar Network800.node380 	discovery_resolution_rate 	0
scalar Network800.node270 	rate_of_requesters 	1
scalar Network800.node270 	number_of_resources 	44000
scalar Network800.node270 	time_period 	2
scalar Network800.node270 	number_of_messages 	0
scalar Network800.node270 	discovery_latency 	6882
scalar Network800.node270 	number_of_desired_resources 	20
scalar Network800.node270 	query_homogenity_rate 	33.333333333333
scalar Network800.node270 	qrecord_time 	14006.055346389
scalar Network800.node270 	discovery_resolution_rate 	0
scalar Network800.node320 	rate_of_requesters 	1
scalar Network800.node320 	number_of_resources 	44000
scalar Network800.node320 	time_period 	4
scalar Network800.node320 	number_of_messages 	2
scalar Network800.node320 	discovery_latency 	6558
scalar Network800.node320 	number_of_desired_resources 	20
scalar Network800.node320 	query_homogenity_rate 	33.333333333333
scalar Network800.node320 	qrecord_time 	14068.94180905
scalar Network800.node320 	discovery_resolution_rate 	0
scalar Network800.node470 	rate_of_requesters 	1
scalar Network800.node470 	number_of_resources 	44000
scalar Network800.node470 	time_period 	2
scalar Network800.node470 	number_of_messages 	2
scalar Network800.node470 	discovery_latency 	6678
scalar Network800.node470 	number_of_desired_resources 	20
scalar Network800.node470 	query_homogenity_rate 	33.333333333333
scalar Network800.node470 	qrecord_time 	14077.879091922
scalar Network800.node470 	discovery_resolution_rate 	0
scalar Network800.node440 	rate_of_requesters 	1
scalar Network800.node440 	number_of_resources 	44000
scalar Network800.node440 	time_period 	2
scalar Network800.node440 	number_of_messages 	2
scalar Network800.node440 	discovery_latency 	6822
scalar Network800.node440 	number_of_desired_resources 	20
scalar Network800.node440 	query_homogenity_rate 	33.333333333333
scalar Network800.node440 	qrecord_time 	14138.406389868
scalar Network800.node440 	discovery_resolution_rate 	0
scalar Network800.node230 	rate_of_requesters 	1
scalar Network800.node230 	number_of_resources 	44000
scalar Network800.node230 	time_period 	3
scalar Network800.node230 	number_of_messages 	2
scalar Network800.node230 	discovery_latency 	7122
scalar Network800.node230 	number_of_desired_resources 	20
scalar Network800.node230 	query_homogenity_rate 	33.333333333333
scalar Network800.node230 	qrecord_time 	14240.106590997
scalar Network800.node230 	discovery_resolution_rate 	0
scalar Network800.node370 	rate_of_requesters 	1
scalar Network800.node370 	number_of_resources 	44000
scalar Network800.node370 	time_period 	2
scalar Network800.node370 	number_of_messages 	82
scalar Network800.node370 	discovery_latency 	4884
scalar Network800.node370 	number_of_desired_resources 	20
scalar Network800.node370 	query_homogenity_rate 	33.333333333333
scalar Network800.node370 	qrecord_time 	14253.237169831
scalar Network800.node370 	discovery_resolution_rate 	33.333333333333
scalar Network800.node550 	rate_of_requesters 	1
scalar Network800.node550 	number_of_resources 	44000
scalar Network800.node550 	time_period 	2
scalar Network800.node550 	number_of_messages 	0
scalar Network800.node550 	discovery_latency 	6606
scalar Network800.node550 	number_of_desired_resources 	20
scalar Network800.node550 	query_homogenity_rate 	33.333333333333
scalar Network800.node550 	qrecord_time 	14294.888992806
scalar Network800.node550 	discovery_resolution_rate 	0
scalar Network800.node0 	rate_of_requesters 	1
scalar Network800.node0 	number_of_resources 	44000
scalar Network800.node0 	time_period 	2
scalar Network800.node0 	number_of_messages 	2
scalar Network800.node0 	discovery_latency 	6834
scalar Network800.node0 	number_of_desired_resources 	20
scalar Network800.node0 	query_homogenity_rate 	33.333333333333
scalar Network800.node0 	qrecord_time 	14297.508897502
scalar Network800.node0 	discovery_resolution_rate 	0
scalar Network800.node510 	rate_of_requesters 	1
scalar Network800.node510 	number_of_resources 	44000
scalar Network800.node510 	time_period 	3
scalar Network800.node510 	number_of_messages 	2
scalar Network800.node510 	discovery_latency 	6942
scalar Network800.node510 	number_of_desired_resources 	20
scalar Network800.node510 	query_homogenity_rate 	33.333333333333
scalar Network800.node510 	qrecord_time 	14370.153519546
scalar Network800.node510 	discovery_resolution_rate 	0
scalar Network800.node120 	rate_of_requesters 	1
scalar Network800.node120 	number_of_resources 	44000
scalar Network800.node120 	time_period 	3
scalar Network800.node120 	number_of_messages 	2
scalar Network800.node120 	discovery_latency 	6822
scalar Network800.node120 	number_of_desired_resources 	20
scalar Network800.node120 	query_homogenity_rate 	33.333333333333
scalar Network800.node120 	qrecord_time 	14373.004360711
scalar Network800.node120 	discovery_resolution_rate 	0
scalar Network800.node610 	rate_of_requesters 	1
scalar Network800.node610 	number_of_resources 	44000
scalar Network800.node610 	time_period 	2
scalar Network800.node610 	number_of_messages 	2
scalar Network800.node610 	discovery_latency 	6882
scalar Network800.node610 	number_of_desired_resources 	20
scalar Network800.node610 	query_homogenity_rate 	33.333333333333
scalar Network800.node610 	qrecord_time 	14398.559538308
scalar Network800.node610 	discovery_resolution_rate 	0
scalar Network800.node290 	rate_of_requesters 	1
scalar Network800.node290 	number_of_resources 	44000
scalar Network800.node290 	time_period 	3
scalar Network800.node290 	number_of_messages 	2
scalar Network800.node290 	discovery_latency 	6906
scalar Network800.node290 	number_of_desired_resources 	20
scalar Network800.node290 	query_homogenity_rate 	33.333333333333
scalar Network800.node290 	qrecord_time 	14561.32153647
scalar Network800.node290 	discovery_resolution_rate 	0
scalar Network800.node420 	rate_of_requesters 	1
scalar Network800.node420 	number_of_resources 	44000
scalar Network800.node420 	time_period 	3
scalar Network800.node420 	number_of_messages 	2
scalar Network800.node420 	discovery_latency 	6858
scalar Network800.node420 	number_of_desired_resources 	20
scalar Network800.node420 	query_homogenity_rate 	33.333333333333
scalar Network800.node420 	qrecord_time 	14583.952058744
scalar Network800.node420 	discovery_resolution_rate 	0
scalar Network800.node380 	rate_of_requesters 	1
scalar Network800.node380 	number_of_resources 	44000
scalar Network800.node380 	time_period 	4
scalar Network800.node380 	number_of_messages 	2
scalar Network800.node380 	discovery_latency 	6726
scalar Network800.node380 	number_of_desired_resources 	20
scalar Network800.node380 	query_homogenity_rate 	33.333333333333
scalar Network800.node380 	qrecord_time 	14668.79860063
scalar Network800.node380 	discovery_resolution_rate 	0
scalar Network800.node770 	rate_of_requesters 	1
scalar Network800.node770 	number_of_resources 	44000
scalar Network800.node770 	time_period 	4
scalar Network800.node770 	number_of_messages 	2
scalar Network800.node770 	discovery_latency 	6786
scalar Network800.node770 	number_of_desired_resources 	20
scalar Network800.node770 	query_homogenity_rate 	33.333333333333
scalar Network800.node770 	qrecord_time 	14794.920147177
scalar Network800.node770 	discovery_resolution_rate 	0
scalar Network800.node760 	rate_of_requesters 	1
scalar Network800.node760 	number_of_resources 	44000
scalar Network800.node760 	time_period 	3
scalar Network800.node760 	number_of_messages 	2
scalar Network800.node760 	discovery_latency 	6762
scalar Network800.node760 	number_of_desired_resources 	20
scalar Network800.node760 	query_homogenity_rate 	33.333333333333
scalar Network800.node760 	qrecord_time 	14868.741909095
scalar Network800.node760 	discovery_resolution_rate 	0
scalar Network800.node100 	rate_of_requesters 	1
scalar Network800.node100 	number_of_resources 	44000
scalar Network800.node100 	time_period 	3
scalar Network800.node100 	number_of_messages 	100
scalar Network800.node100 	discovery_latency 	4992
scalar Network800.node100 	number_of_desired_resources 	20
scalar Network800.node100 	query_homogenity_rate 	33.333333333333
scalar Network800.node100 	qrecord_time 	14877.814796282
scalar Network800.node100 	discovery_resolution_rate 	33.333333333333
scalar Network800.node700 	rate_of_requesters 	1
scalar Network800.node700 	number_of_resources 	44000
scalar Network800.node700 	time_period 	3
scalar Network800.node700 	number_of_messages 	2
scalar Network800.node700 	discovery_latency 	6894
scalar Network800.node700 	number_of_desired_resources 	20
scalar Network800.node700 	query_homogenity_rate 	33.333333333333
scalar Network800.node700 	qrecord_time 	14880.40701903
scalar Network800.node700 	discovery_resolution_rate 	0
scalar Network800.node150 	rate_of_requesters 	1
scalar Network800.node150 	number_of_resources 	44000
scalar Network800.node150 	time_period 	4
scalar Network800.node150 	number_of_messages 	25
scalar Network800.node150 	discovery_latency 	6858
scalar Network800.node150 	number_of_desired_resources 	20
scalar Network800.node150 	query_homogenity_rate 	33.333333333333
scalar Network800.node150 	qrecord_time 	14901.487507021
scalar Network800.node150 	discovery_resolution_rate 	33.333333333333
scalar Network800.node610 	rate_of_requesters 	1
scalar Network800.node610 	number_of_resources 	44000
scalar Network800.node610 	time_period 	3
scalar Network800.node610 	number_of_messages 	2
scalar Network800.node610 	discovery_latency 	6846
scalar Network800.node610 	number_of_desired_resources 	20
scalar Network800.node610 	query_homogenity_rate 	33.333333333333
scalar Network800.node610 	qrecord_time 	14912.462973295
scalar Network800.node610 	discovery_resolution_rate 	0
scalar Network800.node550 	rate_of_requesters 	1
scalar Network800.node550 	number_of_resources 	44000
scalar Network800.node550 	time_period 	3
scalar Network800.node550 	number_of_messages 	6
scalar Network800.node550 	discovery_latency 	6702
scalar Network800.node550 	number_of_desired_resources 	20
scalar Network800.node550 	query_homogenity_rate 	33.333333333333
scalar Network800.node550 	qrecord_time 	14947.85298587
scalar Network800.node550 	discovery_resolution_rate 	33.333333333333
scalar Network800.node600 	rate_of_requesters 	1
scalar Network800.node600 	number_of_resources 	44000
scalar Network800.node600 	time_period 	2
scalar Network800.node600 	number_of_messages 	60
scalar Network800.node600 	discovery_latency 	4944
scalar Network800.node600 	number_of_desired_resources 	20
scalar Network800.node600 	query_homogenity_rate 	33.333333333333
scalar Network800.node600 	qrecord_time 	14953.783973965
scalar Network800.node600 	discovery_resolution_rate 	33.333333333333
scalar Network800.node170 	rate_of_requesters 	1
scalar Network800.node170 	number_of_resources 	44000
[...]
scalar Network800.node590 	query_homogenity_rate 	33.333333333333
scalar Network800.node590 	qrecord_time 	53017.134969322
scalar Network800.node590 	discovery_resolution_rate 	66.666666666667
scalar Network800.node650 	rate_of_requesters 	1
scalar Network800.node650 	number_of_resources 	44000
scalar Network800.node650 	time_period 	9
scalar Network800.node650 	number_of_messages 	28
scalar Network800.node650 	discovery_latency 	4896
scalar Network800.node650 	number_of_desired_resources 	20
scalar Network800.node650 	query_homogenity_rate 	33.333333333333
scalar Network800.node650 	qrecord_time 	53488.570310912
scalar Network800.node650 	discovery_resolution_rate 	66.666666666667
scalar Network800.node130 	rate_of_requesters 	1
scalar Network800.node130 	number_of_resources 	44000
scalar Network800.node130 	time_period 	10
scalar Network800.node130 	number_of_messages 	104
scalar Network800.node130 	discovery_latency 	1824
scalar Network800.node130 	number_of_desired_resources 	20
scalar Network800.node130 	query_homogenity_rate 	33.333333333333
scalar Network800.node130 	qrecord_time 	53771.317263825
scalar Network800.node130 	discovery_resolution_rate 	100
scalar Network800.node170 	rate_of_requesters 	1
scalar Network800.node170 	number_of_resources 	44000
scalar Network800.node170 	time_period 	10
scalar Network800.node170 	number_of_messages 	34
scalar Network800.node170 	discovery_latency 	4728
scalar Network800.node170 	number_of_desired_resources 	20
scalar Network800.node170 	query_homogenity_rate 	33.333333333333
scalar Network800.node170 	qrecord_time 	53976.040946505
scalar Network800.node170 	discovery_resolution_rate 	66.666666666667
scalar Network800.node230 	rate_of_requesters 	1
scalar Network800.node230 	number_of_resources 	44000
scalar Network800.node230 	time_period 	8
scalar Network800.node230 	number_of_messages 	24
scalar Network800.node230 	discovery_latency 	156.00000000001
scalar Network800.node230 	number_of_desired_resources 	20
scalar Network800.node230 	query_homogenity_rate 	33.333333333333
scalar Network800.node230 	qrecord_time 	54307.794041511
scalar Network800.node230 	discovery_resolution_rate 	100
scalar Network800.node230 	rate_of_requesters 	1
scalar Network800.node230 	number_of_resources 	44000
scalar Network800.node230 	time_period 	7
scalar Network800.node230 	number_of_messages 	217
scalar Network800.node230 	discovery_latency 	4908
scalar Network800.node230 	number_of_desired_resources 	20
scalar Network800.node230 	query_homogenity_rate 	33.333333333333
scalar Network800.node230 	qrecord_time 	54550.461434564
scalar Network800.node230 	discovery_resolution_rate 	83.333333333333
scalar Network800.node220 	rate_of_requesters 	1
scalar Network800.node220 	number_of_resources 	44000
scalar Network800.node220 	time_period 	6
scalar Network800.node220 	number_of_messages 	11
scalar Network800.node220 	discovery_latency 	5016
scalar Network800.node220 	number_of_desired_resources 	20
scalar Network800.node220 	query_homogenity_rate 	33.333333333333
scalar Network800.node220 	qrecord_time 	54747.787024005
scalar Network800.node220 	discovery_resolution_rate 	33.333333333333
scalar Network800.node220 	rate_of_requesters 	1
scalar Network800.node220 	number_of_resources 	44000
scalar Network800.node220 	time_period 	7
scalar Network800.node220 	number_of_messages 	15
scalar Network800.node220 	discovery_latency 	4992
scalar Network800.node220 	number_of_desired_resources 	20
scalar Network800.node220 	query_homogenity_rate 	33.333333333333
scalar Network800.node220 	qrecord_time 	54953.802953979
scalar Network800.node220 	discovery_resolution_rate 	33.333333333333
scalar Network800.node0 	rate_of_requesters 	1
scalar Network800.node0 	number_of_resources 	44000
scalar Network800.node0 	time_period 	10
scalar Network800.node0 	number_of_messages 	9
scalar Network800.node0 	discovery_latency 	4944
scalar Network800.node0 	number_of_desired_resources 	20
scalar Network800.node0 	query_homogenity_rate 	33.333333333333
scalar Network800.node0 	qrecord_time 	55030.004273584
scalar Network800.node0 	discovery_resolution_rate 	33.333333333333
scalar Network800.node250 	rate_of_requesters 	1
scalar Network800.node250 	number_of_resources 	44000
scalar Network800.node250 	time_period 	10
scalar Network800.node250 	number_of_messages 	44
scalar Network800.node250 	discovery_latency 	4764
scalar Network800.node250 	number_of_desired_resources 	20
scalar Network800.node250 	query_homogenity_rate 	33.333333333333
scalar Network800.node250 	qrecord_time 	55178.579077926
scalar Network800.node250 	discovery_resolution_rate 	66.666666666667
scalar Network800.node620 	rate_of_requesters 	1
scalar Network800.node620 	number_of_resources 	44000
scalar Network800.node620 	time_period 	10
scalar Network800.node620 	number_of_messages 	101
scalar Network800.node620 	discovery_latency 	5040
scalar Network800.node620 	number_of_desired_resources 	20
scalar Network800.node620 	query_homogenity_rate 	33.333333333333
scalar Network800.node620 	qrecord_time 	55313.025582754
scalar Network800.node620 	discovery_resolution_rate 	66.666666666667
scalar Network800.node230 	rate_of_requesters 	1
scalar Network800.node230 	number_of_resources 	44000
scalar Network800.node230 	time_period 	9
scalar Network800.node230 	number_of_messages 	20
scalar Network800.node230 	discovery_latency 	156
scalar Network800.node230 	number_of_desired_resources 	20
scalar Network800.node230 	query_homogenity_rate 	33.333333333333
scalar Network800.node230 	qrecord_time 	56729.518887757
scalar Network800.node230 	discovery_resolution_rate 	100
scalar Network800.node740 	rate_of_requesters 	1
scalar Network800.node740 	number_of_resources 	44000
scalar Network800.node740 	time_period 	8
scalar Network800.node740 	number_of_messages 	29
scalar Network800.node740 	discovery_latency 	4800
scalar Network800.node740 	number_of_desired_resources 	20
scalar Network800.node740 	query_homogenity_rate 	33.333333333333
scalar Network800.node740 	qrecord_time 	57104.842804897
scalar Network800.node740 	discovery_resolution_rate 	66.666666666667
scalar Network800.node770 	rate_of_requesters 	1
scalar Network800.node770 	number_of_resources 	44000
scalar Network800.node770 	time_period 	10
scalar Network800.node770 	number_of_messages 	214
scalar Network800.node770 	discovery_latency 	4824
scalar Network800.node770 	number_of_desired_resources 	20
scalar Network800.node770 	query_homogenity_rate 	33.333333333333
scalar Network800.node770 	qrecord_time 	57168.259957526
scalar Network800.node770 	discovery_resolution_rate 	50
scalar Network800.node600 	rate_of_requesters 	1
scalar Network800.node600 	number_of_resources 	44000
scalar Network800.node600 	time_period 	10
scalar Network800.node600 	number_of_messages 	20
scalar Network800.node600 	discovery_latency 	5016
scalar Network800.node600 	number_of_desired_resources 	20
scalar Network800.node600 	query_homogenity_rate 	33.333333333333
scalar Network800.node600 	qrecord_time 	57247.158622871
scalar Network800.node600 	discovery_resolution_rate 	66.666666666667
scalar Network800.node490 	rate_of_requesters 	1
scalar Network800.node490 	number_of_resources 	44000
scalar Network800.node490 	time_period 	5
scalar Network800.node490 	number_of_messages 	34
scalar Network800.node490 	discovery_latency 	5040
scalar Network800.node490 	number_of_desired_resources 	20
scalar Network800.node490 	query_homogenity_rate 	33.333333333333
scalar Network800.node490 	qrecord_time 	58349.588941725
scalar Network800.node490 	discovery_resolution_rate 	66.666666666667
scalar Network800.node220 	rate_of_requesters 	1
scalar Network800.node220 	number_of_resources 	44000
scalar Network800.node220 	time_period 	8
scalar Network800.node220 	number_of_messages 	25
scalar Network800.node220 	discovery_latency 	4932
scalar Network800.node220 	number_of_desired_resources 	20
scalar Network800.node220 	query_homogenity_rate 	33.333333333333
scalar Network800.node220 	qrecord_time 	58414.440459267
scalar Network800.node220 	discovery_resolution_rate 	66.666666666667
scalar Network800.node490 	rate_of_requesters 	1
scalar Network800.node490 	number_of_resources 	44000
scalar Network800.node490 	time_period 	6
scalar Network800.node490 	number_of_messages 	38
scalar Network800.node490 	discovery_latency 	5016
scalar Network800.node490 	number_of_desired_resources 	20
scalar Network800.node490 	query_homogenity_rate 	33.333333333333
scalar Network800.node490 	qrecord_time 	58670.262218537
scalar Network800.node490 	discovery_resolution_rate 	66.666666666667
scalar Network800.node50 	rate_of_requesters 	1
scalar Network800.node50 	number_of_resources 	44000
scalar Network800.node50 	time_period 	10
scalar Network800.node50 	number_of_messages 	16
scalar Network800.node50 	discovery_latency 	4884
scalar Network800.node50 	number_of_desired_resources 	20
scalar Network800.node50 	query_homogenity_rate 	33.333333333333
scalar Network800.node50 	qrecord_time 	59012.42775746
scalar Network800.node50 	discovery_resolution_rate 	66.666666666667
scalar Network800.node230 	rate_of_requesters 	1
scalar Network800.node230 	number_of_resources 	44000
scalar Network800.node230 	time_period 	10
scalar Network800.node230 	number_of_messages 	17
scalar Network800.node230 	discovery_latency 	144.00000000001
scalar Network800.node230 	number_of_desired_resources 	20
scalar Network800.node230 	query_homogenity_rate 	33.333333333333
scalar Network800.node230 	qrecord_time 	59095.483641968
scalar Network800.node230 	discovery_resolution_rate 	100
scalar Network800.node140 	rate_of_requesters 	1
scalar Network800.node140 	number_of_resources 	44000
scalar Network800.node140 	time_period 	10
scalar Network800.node140 	number_of_messages 	18
scalar Network800.node140 	discovery_latency 	4728
scalar Network800.node140 	number_of_desired_resources 	20
scalar Network800.node140 	query_homogenity_rate 	33.333333333333
scalar Network800.node140 	qrecord_time 	59169.500787951
scalar Network800.node140 	discovery_resolution_rate 	66.666666666667
scalar Network800.node310 	rate_of_requesters 	1
scalar Network800.node310 	number_of_resources 	44000
scalar Network800.node310 	time_period 	9
scalar Network800.node310 	number_of_messages 	33
scalar Network800.node310 	discovery_latency 	240
scalar Network800.node310 	number_of_desired_resources 	20
scalar Network800.node310 	query_homogenity_rate 	33.333333333333
scalar Network800.node310 	qrecord_time 	59205.389987447
scalar Network800.node310 	discovery_resolution_rate 	100
scalar Network800.node400 	rate_of_requesters 	1
scalar Network800.node400 	number_of_resources 	44000
scalar Network800.node400 	time_period 	9
scalar Network800.node400 	number_of_messages 	23
scalar Network800.node400 	discovery_latency 	4788
scalar Network800.node400 	number_of_desired_resources 	20
scalar Network800.node400 	query_homogenity_rate 	33.333333333333
scalar Network800.node400 	qrecord_time 	59224.519880221
scalar Network800.node400 	discovery_resolution_rate 	66.666666666667
scalar Network800.node220 	rate_of_requesters 	1
scalar Network800.node220 	number_of_resources 	44000
scalar Network800.node220 	time_period 	9
scalar Network800.node220 	number_of_messages 	27
scalar Network800.node220 	discovery_latency 	4716
scalar Network800.node220 	number_of_desired_resources 	20
scalar Network800.node220 	query_homogenity_rate 	33.333333333333
scalar Network800.node220 	qrecord_time 	59394.977336949
scalar Network800.node220 	discovery_resolution_rate 	66.666666666667
scalar Network800.node400 	rate_of_requesters 	1
scalar Network800.node400 	number_of_resources 	44000
scalar Network800.node400 	time_period 	10
scalar Network800.node400 	number_of_messages 	21
scalar Network800.node400 	discovery_latency 	138
scalar Network800.node400 	number_of_desired_resources 	20
scalar Network800.node400 	query_homogenity_rate 	33.333333333333
scalar Network800.node400 	qrecord_time 	59470.489847055
scalar Network800.node400 	discovery_resolution_rate 	100
scalar Network800.node740 	rate_of_requesters 	1
scalar Network800.node740 	number_of_resources 	44000
scalar Network800.node740 	time_period 	10
scalar Network800.node740 	number_of_messages 	20
scalar Network800.node740 	discovery_latency 	168
scalar Network800.node740 	number_of_desired_resources 	20
scalar Network800.node740 	query_homogenity_rate 	33.333333333333
scalar Network800.node740 	qrecord_time 	59541.423333703
scalar Network800.node740 	discovery_resolution_rate 	100
scalar Network800.node220 	rate_of_requesters 	1
scalar Network800.node220 	number_of_resources 	44000
scalar Network800.node220 	time_period 	10
scalar Network800.node220 	number_of_messages 	27
scalar Network800.node220 	discovery_latency 	4716
scalar Network800.node220 	number_of_desired_resources 	20
scalar Network800.node220 	query_homogenity_rate 	33.333333333333
scalar Network800.node220 	qrecord_time 	59594.484769875
scalar Network800.node220 	discovery_resolution_rate 	66.666666666667
scalar Network800.node490 	rate_of_requesters 	1
scalar Network800.node490 	number_of_resources 	44000
scalar Network800.node490 	time_period 	8
scalar Network800.node490 	number_of_messages 	19
scalar Network800.node490 	discovery_latency 	192
scalar Network800.node490 	number_of_desired_resources 	20
scalar Network800.node490 	query_homogenity_rate 	33.333333333333
scalar Network800.node490 	qrecord_time 	59734.365913316
scalar Network800.node490 	discovery_resolution_rate 	100
scalar Network800.node740 	rate_of_requesters 	1
scalar Network800.node740 	number_of_resources 	44000
scalar Network800.node740 	time_period 	9
scalar Network800.node740 	number_of_messages 	70
scalar Network800.node740 	discovery_latency 	4944
scalar Network800.node740 	number_of_desired_resources 	20
scalar Network800.node740 	query_homogenity_rate 	33.333333333333
scalar Network800.node740 	qrecord_time 	60195.240238796
scalar Network800.node740 	discovery_resolution_rate 	66.666666666667
scalar Network800.node490 	rate_of_requesters 	1
scalar Network800.node490 	number_of_resources 	44000
scalar Network800.node490 	time_period 	7
scalar Network800.node490 	number_of_messages 	65
scalar Network800.node490 	discovery_latency 	4812
scalar Network800.node490 	number_of_desired_resources 	20
scalar Network800.node490 	query_homogenity_rate 	33.333333333333
scalar Network800.node490 	qrecord_time 	60317.114665506
scalar Network800.node490 	discovery_resolution_rate 	66.666666666667
scalar Network800.node650 	rate_of_requesters 	1
scalar Network800.node650 	number_of_resources 	44000
scalar Network800.node650 	time_period 	10
scalar Network800.node650 	number_of_messages 	65
scalar Network800.node650 	discovery_latency 	1116
scalar Network800.node650 	number_of_desired_resources 	20
scalar Network800.node650 	query_homogenity_rate 	33.333333333333
scalar Network800.node650 	qrecord_time 	61456.767002566
scalar Network800.node650 	discovery_resolution_rate 	100
scalar Network800.node480 	rate_of_requesters 	1
scalar Network800.node480 	number_of_resources 	44000
scalar Network800.node480 	time_period 	4
scalar Network800.node480 	number_of_messages 	22
scalar Network800.node480 	discovery_latency 	156
scalar Network800.node480 	number_of_desired_resources 	20
scalar Network800.node480 	query_homogenity_rate 	33.333333333333
scalar Network800.node480 	qrecord_time 	62919.452873093
scalar Network800.node480 	discovery_resolution_rate 	100
scalar Network800.node490 	rate_of_requesters 	1
scalar Network800.node490 	number_of_resources 	44000
scalar Network800.node490 	time_period 	9
scalar Network800.node490 	number_of_messages 	18
scalar Network800.node490 	discovery_latency 	180.00000000001
scalar Network800.node490 	number_of_desired_resources 	20
scalar Network800.node490 	query_homogenity_rate 	33.333333333333
scalar Network800.node490 	qrecord_time 	65131.219747863
scalar Network800.node490 	discovery_resolution_rate 	100
scalar Network800.node310 	rate_of_requesters 	1
scalar Network800.node310 	number_of_resources 	44000
scalar Network800.node310 	time_period 	10
scalar Network800.node310 	number_of_messages 	31
scalar Network800.node310 	discovery_latency 	228.00000000001
scalar Network800.node310 	number_of_desired_resources 	20
scalar Network800.node310 	query_homogenity_rate 	33.333333333333
scalar Network800.node310 	qrecord_time 	65752.604528093
scalar Network800.node310 	discovery_resolution_rate 	100
scalar Network800.node490 	rate_of_requesters 	1
scalar Network800.node490 	number_of_resources 	44000
scalar Network800.node490 	time_period 	10
scalar Network800.node490 	number_of_messages 	18
scalar Network800.node490 	discovery_latency 	180.00000000001
scalar Network800.node490 	number_of_desired_resources 	20
scalar Network800.node490 	query_homogenity_rate 	33.333333333333
scalar Network800.node490 	qrecord_time 	66554.326137751
scalar Network800.node490 	discovery_resolution_rate 	100
scalar Network800.node480 	rate_of_requesters 	1
scalar Network800.node480 	number_of_resources 	44000
scalar Network800.node480 	time_period 	5
scalar Network800.node480 	number_of_messages 	22
scalar Network800.node480 	discovery_latency 	156.00000000001
scalar Network800.node480 	number_of_desired_resources 	20
scalar Network800.node480 	query_homogenity_rate 	33.333333333333
scalar Network800.node480 	qrecord_time 	72174.348358649
scalar Network800.node480 	discovery_resolution_rate 	100
scalar Network800.node480 	rate_of_requesters 	1
scalar Network800.node480 	number_of_resources 	44000
scalar Network800.node480 	time_period 	6
scalar Network800.node480 	number_of_messages 	22
scalar Network800.node480 	discovery_latency 	156.00000000001
scalar Network800.node480 	number_of_desired_resources 	20
scalar Network800.node480 	query_homogenity_rate 	33.333333333333
scalar Network800.node480 	qrecord_time 	73232.233343039
scalar Network800.node480 	discovery_resolution_rate 	100
scalar Network800.node480 	rate_of_requesters 	1
scalar Network800.node480 	number_of_resources 	44000
scalar Network800.node480 	time_period 	7
scalar Network800.node480 	number_of_messages 	22
scalar Network800.node480 	discovery_latency 	156.00000000001
scalar Network800.node480 	number_of_desired_resources 	20
scalar Network800.node480 	query_homogenity_rate 	33.333333333333
scalar Network800.node480 	qrecord_time 	74932.828056117
scalar Network800.node480 	discovery_resolution_rate 	100
scalar Network800.node480 	rate_of_requesters 	1
scalar Network800.node480 	number_of_resources 	44000
scalar Network800.node480 	time_period 	8
scalar Network800.node480 	number_of_messages 	22
scalar Network800.node480 	discovery_latency 	156.00000000001
scalar Network800.node480 	number_of_desired_resources 	20
scalar Network800.node480 	query_homogenity_rate 	33.333333333333
scalar Network800.node480 	qrecord_time 	79679.32208975
scalar Network800.node480 	discovery_resolution_rate 	100
scalar Network800.node480 	rate_of_requesters 	1
scalar Network800.node480 	number_of_resources 	44000
scalar Network800.node480 	time_period 	9
scalar Network800.node480 	number_of_messages 	22
scalar Network800.node480 	discovery_latency 	156.00000000001
scalar Network800.node480 	number_of_desired_resources 	20
scalar Network800.node480 	query_homogenity_rate 	33.333333333333
scalar Network800.node480 	qrecord_time 	83616.326396998
scalar Network800.node480 	discovery_resolution_rate 	100
scalar Network800.node480 	rate_of_requesters 	1
scalar Network800.node480 	number_of_resources 	44000
scalar Network800.node480 	time_period 	10
scalar Network800.node480 	number_of_messages 	22
scalar Network800.node480 	discovery_latency 	156.00000000001
scalar Network800.node480 	number_of_desired_resources 	20
scalar Network800.node480 	query_homogenity_rate 	33.333333333333
scalar Network800.node480 	qrecord_time 	88509.592116495
scalar Network800.node480 	discovery_resolution_rate 	100
