version 2
run net800-2-20150624-02:26:07-29588
attr as 1
attr configname net800
attr datetime 20150624-02:26:07
attr dnor 20
attr experiment net800
attr inifile omnetpp.ini
attr iterationvars "$rhdrq=3, $dnor=20, $as=1"
attr iterationvars2 "$rhdrq=3, $dnor=20, $as=1, $repetition=2"
attr measurement "$rhdrq=3, $dnor=20, $as=1"
attr network Network800
attr processid 29588
attr repetition 2
attr replication #2
attr resultdir results
attr rhdrq 3
attr runnumber 2
attr seedset 2

scalar . 	as 	1
scalar . 	dnor 	20
scalar . 	rhdrq 	3
scalar Network800.node740 	rate_of_requesters 	1
scalar Network800.node740 	number_of_resources 	44000
scalar Network800.node740 	time_period 	1
scalar Network800.node740 	number_of_messages 	12
scalar Network800.node740 	discovery_latency 	4176
scalar Network800.node740 	number_of_desired_resources 	20
scalar Network800.node740 	query_homogenity_rate 	33.333333333333
scalar Network800.node740 	qrecord_time 	8860
scalar Network800.node740 	discovery_resolution_rate 	66.666666666667
scalar Network800.node550 	rate_of_requesters 	1
scalar Network800.node550 	number_of_resources 	44000
scalar Network800.node550 	time_period 	1
scalar Network800.node550 	number_of_messages 	21
scalar Network800.node550 	discovery_latency 	4140
scalar Network800.node550 	number_of_desired_resources 	20
scalar Network800.node550 	query_homogenity_rate 	33.333333333333
scalar Network800.node550 	qrecord_time 	8878
scalar Network800.node550 	discovery_resolution_rate 	66.666666666667
scalar Network800.node560 	rate_of_requesters 	1
scalar Network800.node560 	number_of_resources 	44000
scalar Network800.node560 	time_period 	1
scalar Network800.node560 	number_of_messages 	66
scalar Network800.node560 	discovery_latency 	4212
scalar Network800.node560 	number_of_desired_resources 	20
scalar Network800.node560 	query_homogenity_rate 	33.333333333333
scalar Network800.node560 	qrecord_time 	8884
scalar Network800.node560 	discovery_resolution_rate 	33.333333333333
scalar Network800.node480 	rate_of_requesters 	1
scalar Network800.node480 	number_of_resources 	44000
scalar Network800.node480 	time_period 	1
scalar Network800.node480 	number_of_messages 	11
scalar Network800.node480 	discovery_latency 	4152
scalar Network800.node480 	number_of_desired_resources 	20
scalar Network800.node480 	query_homogenity_rate 	33.333333333333
scalar Network800.node480 	qrecord_time 	8902
scalar Network800.node480 	discovery_resolution_rate 	66.666666666667
scalar Network800.node500 	rate_of_requesters 	1
scalar Network800.node500 	number_of_resources 	44000
scalar Network800.node500 	time_period 	1
scalar Network800.node500 	number_of_messages 	100
scalar Network800.node500 	discovery_latency 	4212
scalar Network800.node500 	number_of_desired_resources 	20
scalar Network800.node500 	query_homogenity_rate 	33.333333333333
scalar Network800.node500 	qrecord_time 	8902
scalar Network800.node500 	discovery_resolution_rate 	66.666666666667
scalar Network800.node580 	rate_of_requesters 	1
scalar Network800.node580 	number_of_resources 	44000
scalar Network800.node580 	time_period 	1
scalar Network800.node580 	number_of_messages 	8
scalar Network800.node580 	discovery_latency 	4200
scalar Network800.node580 	number_of_desired_resources 	20
scalar Network800.node580 	query_homogenity_rate 	33.333333333333
scalar Network800.node580 	qrecord_time 	8908
scalar Network800.node580 	discovery_resolution_rate 	33.333333333333
scalar Network800.node30 	rate_of_requesters 	1
scalar Network800.node30 	number_of_resources 	44000
scalar Network800.node30 	time_period 	1
scalar Network800.node30 	number_of_messages 	5
scalar Network800.node30 	discovery_latency 	4188
scalar Network800.node30 	number_of_desired_resources 	20
scalar Network800.node30 	query_homogenity_rate 	33.333333333333
scalar Network800.node30 	qrecord_time 	8914
scalar Network800.node30 	discovery_resolution_rate 	33.333333333333
scalar Network800.node0 	rate_of_requesters 	1
scalar Network800.node0 	number_of_resources 	44000
scalar Network800.node0 	time_period 	1
scalar Network800.node0 	number_of_messages 	38
scalar Network800.node0 	discovery_latency 	4200
scalar Network800.node0 	number_of_desired_resources 	20
scalar Network800.node0 	query_homogenity_rate 	33.333333333333
scalar Network800.node0 	qrecord_time 	8914
scalar Network800.node0 	discovery_resolution_rate 	33.333333333333
scalar Network800.node200 	rate_of_requesters 	1
scalar Network800.node200 	number_of_resources 	44000
scalar Network800.node200 	time_period 	1
scalar Network800.node200 	number_of_messages 	6
scalar Network800.node200 	discovery_latency 	4152
scalar Network800.node200 	number_of_desired_resources 	20
scalar Network800.node200 	query_homogenity_rate 	33.333333333333
scalar Network800.node200 	qrecord_time 	8920
scalar Network800.node200 	discovery_resolution_rate 	33.333333333333
scalar Network800.node280 	rate_of_requesters 	1
scalar Network800.node280 	number_of_resources 	44000
scalar Network800.node280 	time_period 	1
scalar Network800.node280 	number_of_messages 	9
scalar Network800.node280 	discovery_latency 	4224
scalar Network800.node280 	number_of_desired_resources 	20
scalar Network800.node280 	query_homogenity_rate 	33.333333333333
scalar Network800.node280 	qrecord_time 	8920
scalar Network800.node280 	discovery_resolution_rate 	33.333333333333
scalar Network800.node380 	rate_of_requesters 	1
scalar Network800.node380 	number_of_resources 	44000
scalar Network800.node380 	time_period 	1
scalar Network800.node380 	number_of_messages 	10
scalar Network800.node380 	discovery_latency 	4200
scalar Network800.node380 	number_of_desired_resources 	20
scalar Network800.node380 	query_homogenity_rate 	33.333333333333
scalar Network800.node380 	qrecord_time 	8932
scalar Network800.node380 	discovery_resolution_rate 	33.333333333333
scalar Network800.node400 	rate_of_requesters 	1
scalar Network800.node400 	number_of_resources 	44000
scalar Network800.node400 	time_period 	1
scalar Network800.node400 	number_of_messages 	13
scalar Network800.node400 	discovery_latency 	4224
scalar Network800.node400 	number_of_desired_resources 	20
scalar Network800.node400 	query_homogenity_rate 	33.333333333333
scalar Network800.node400 	qrecord_time 	8932
scalar Network800.node400 	discovery_resolution_rate 	66.666666666667
scalar Network800.node730 	rate_of_requesters 	1
scalar Network800.node730 	number_of_resources 	44000
scalar Network800.node730 	time_period 	1
scalar Network800.node730 	number_of_messages 	7
scalar Network800.node730 	discovery_latency 	4260
scalar Network800.node730 	number_of_desired_resources 	20
scalar Network800.node730 	query_homogenity_rate 	33.333333333333
scalar Network800.node730 	qrecord_time 	8944
scalar Network800.node730 	discovery_resolution_rate 	33.333333333333
scalar Network800.node160 	rate_of_requesters 	1
scalar Network800.node160 	number_of_resources 	44000
scalar Network800.node160 	time_period 	1
scalar Network800.node160 	number_of_messages 	9
scalar Network800.node160 	discovery_latency 	4236
scalar Network800.node160 	number_of_desired_resources 	20
scalar Network800.node160 	query_homogenity_rate 	33.333333333333
scalar Network800.node160 	qrecord_time 	8950
scalar Network800.node160 	discovery_resolution_rate 	33.333333333333
scalar Network800.node150 	rate_of_requesters 	1
scalar Network800.node150 	number_of_resources 	44000
scalar Network800.node150 	time_period 	1
scalar Network800.node150 	number_of_messages 	5
scalar Network800.node150 	discovery_latency 	4224
scalar Network800.node150 	number_of_desired_resources 	20
scalar Network800.node150 	query_homogenity_rate 	33.333333333333
scalar Network800.node150 	qrecord_time 	8956
scalar Network800.node150 	discovery_resolution_rate 	33.333333333333
scalar Network800.node70 	rate_of_requesters 	1
scalar Network800.node70 	number_of_resources 	44000
scalar Network800.node70 	time_period 	1
scalar Network800.node70 	number_of_messages 	15
scalar Network800.node70 	discovery_latency 	4248
scalar Network800.node70 	number_of_desired_resources 	20
scalar Network800.node70 	query_homogenity_rate 	33.333333333333
scalar Network800.node70 	qrecord_time 	8962
scalar Network800.node70 	discovery_resolution_rate 	33.333333333333
scalar Network800.node710 	rate_of_requesters 	1
scalar Network800.node710 	number_of_resources 	44000
scalar Network800.node710 	time_period 	1
scalar Network800.node710 	number_of_messages 	11
scalar Network800.node710 	discovery_latency 	4320
scalar Network800.node710 	number_of_desired_resources 	20
scalar Network800.node710 	query_homogenity_rate 	33.333333333333
scalar Network800.node710 	qrecord_time 	8962
scalar Network800.node710 	discovery_resolution_rate 	33.333333333333
scalar Network800.node260 	rate_of_requesters 	1
scalar Network800.node260 	number_of_resources 	44000
scalar Network800.node260 	time_period 	1
scalar Network800.node260 	number_of_messages 	9
scalar Network800.node260 	discovery_latency 	4248
scalar Network800.node260 	number_of_desired_resources 	20
scalar Network800.node260 	query_homogenity_rate 	33.333333333333
scalar Network800.node260 	qrecord_time 	8980
scalar Network800.node260 	discovery_resolution_rate 	33.333333333333
scalar Network800.node230 	rate_of_requesters 	1
scalar Network800.node230 	number_of_resources 	44000
scalar Network800.node230 	time_period 	1
scalar Network800.node230 	number_of_messages 	72
scalar Network800.node230 	discovery_latency 	4236
scalar Network800.node230 	number_of_desired_resources 	20
scalar Network800.node230 	query_homogenity_rate 	33.333333333333
scalar Network800.node230 	qrecord_time 	8986
scalar Network800.node230 	discovery_resolution_rate 	66.666666666667
scalar Network800.node240 	rate_of_requesters 	1
scalar Network800.node240 	number_of_resources 	44000
scalar Network800.node240 	time_period 	1
scalar Network800.node240 	number_of_messages 	63
scalar Network800.node240 	discovery_latency 	4272
scalar Network800.node240 	number_of_desired_resources 	20
scalar Network800.node240 	query_homogenity_rate 	33.333333333333
scalar Network800.node240 	qrecord_time 	8986
scalar Network800.node240 	discovery_resolution_rate 	33.333333333333
scalar Network800.node80 	rate_of_requesters 	1
scalar Network800.node80 	number_of_resources 	44000
scalar Network800.node80 	time_period 	1
scalar Network800.node80 	number_of_messages 	17
scalar Network800.node80 	discovery_latency 	4284
scalar Network800.node80 	number_of_desired_resources 	20
scalar Network800.node80 	query_homogenity_rate 	33.333333333333
scalar Network800.node80 	qrecord_time 	8998
scalar Network800.node80 	discovery_resolution_rate 	33.333333333333
scalar Network800.node150 	rate_of_requesters 	1
scalar Network800.node150 	number_of_resources 	44000
scalar Network800.node150 	time_period 	2
scalar Network800.node150 	number_of_messages 	55
scalar Network800.node150 	discovery_latency 	4152
scalar Network800.node150 	number_of_desired_resources 	20
scalar Network800.node150 	query_homogenity_rate 	33.333333333333
scalar Network800.node150 	qrecord_time 	9002.383159948
scalar Network800.node150 	discovery_resolution_rate 	33.333333333333
scalar Network800.node670 	rate_of_requesters 	1
scalar Network800.node670 	number_of_resources 	44000
scalar Network800.node670 	time_period 	1
scalar Network800.node670 	number_of_messages 	246
scalar Network800.node670 	discovery_latency 	4284
scalar Network800.node670 	number_of_desired_resources 	20
scalar Network800.node670 	query_homogenity_rate 	33.333333333333
scalar Network800.node670 	qrecord_time 	9016
scalar Network800.node670 	discovery_resolution_rate 	50
scalar Network800.node190 	rate_of_requesters 	1
scalar Network800.node190 	number_of_resources 	44000
scalar Network800.node190 	time_period 	1
scalar Network800.node190 	number_of_messages 	6
scalar Network800.node190 	discovery_latency 	4272
scalar Network800.node190 	number_of_desired_resources 	20
scalar Network800.node190 	query_homogenity_rate 	33.333333333333
scalar Network800.node190 	qrecord_time 	9022
scalar Network800.node190 	discovery_resolution_rate 	33.333333333333
scalar Network800.node130 	rate_of_requesters 	1
scalar Network800.node130 	number_of_resources 	44000
scalar Network800.node130 	time_period 	1
scalar Network800.node130 	number_of_messages 	5
scalar Network800.node130 	discovery_latency 	4332
scalar Network800.node130 	number_of_desired_resources 	20
scalar Network800.node130 	query_homogenity_rate 	33.333333333333
scalar Network800.node130 	qrecord_time 	9022
scalar Network800.node130 	discovery_resolution_rate 	33.333333333333
scalar Network800.node10 	rate_of_requesters 	1
scalar Network800.node10 	number_of_resources 	44000
scalar Network800.node10 	time_period 	1
scalar Network800.node10 	number_of_messages 	184
scalar Network800.node10 	discovery_latency 	4260
scalar Network800.node10 	number_of_desired_resources 	20
scalar Network800.node10 	query_homogenity_rate 	33.333333333333
scalar Network800.node10 	qrecord_time 	9022
scalar Network800.node10 	discovery_resolution_rate 	50
scalar Network800.node320 	rate_of_requesters 	1
scalar Network800.node320 	number_of_resources 	44000
scalar Network800.node320 	time_period 	1
scalar Network800.node320 	number_of_messages 	6
scalar Network800.node320 	discovery_latency 	4308
scalar Network800.node320 	number_of_desired_resources 	20
scalar Network800.node320 	query_homogenity_rate 	33.333333333333
scalar Network800.node320 	qrecord_time 	9022
scalar Network800.node320 	discovery_resolution_rate 	33.333333333333
scalar Network800.node90 	rate_of_requesters 	1
scalar Network800.node90 	number_of_resources 	44000
scalar Network800.node90 	time_period 	1
scalar Network800.node90 	number_of_messages 	4
scalar Network800.node90 	discovery_latency 	4344
scalar Network800.node90 	number_of_desired_resources 	20
scalar Network800.node90 	query_homogenity_rate 	33.333333333333
scalar Network800.node90 	qrecord_time 	9034
scalar Network800.node90 	discovery_resolution_rate 	33.333333333333
scalar Network800.node310 	rate_of_requesters 	1
scalar Network800.node310 	number_of_resources 	44000
scalar Network800.node310 	time_period 	1
scalar Network800.node310 	number_of_messages 	10
scalar Network800.node310 	discovery_latency 	4320
scalar Network800.node310 	number_of_desired_resources 	20
scalar Network800.node310 	query_homogenity_rate 	33.333333333333
scalar Network800.node310 	qrecord_time 	9034
scalar Network800.node310 	discovery_resolution_rate 	33.333333333333
scalar Network800.node40 	rate_of_requesters 	1
scalar Network800.node40 	number_of_resources 	44000
scalar Network800.node40 	time_period 	1
scalar Network800.node40 	number_of_messages 	13
scalar Network800.node40 	discovery_latency 	4332
scalar Network800.node40 	number_of_desired_resources 	20
scalar Network800.node40 	query_homogenity_rate 	33.333333333333
scalar Network800.node40 	qrecord_time 	9046
scalar Network800.node40 	discovery_resolution_rate 	33.333333333333
scalar Network800.node220 	rate_of_requesters 	1
scalar Network800.node220 	number_of_resources 	44000
scalar Network800.node220 	time_period 	1
scalar Network800.node220 	number_of_messages 	19
scalar Network800.node220 	discovery_latency 	4332
scalar Network800.node220 	number_of_desired_resources 	20
scalar Network800.node220 	query_homogenity_rate 	33.333333333333
scalar Network800.node220 	qrecord_time 	9046
scalar Network800.node220 	discovery_resolution_rate 	66.666666666667
scalar Network800.node510 	rate_of_requesters 	1
scalar Network800.node510 	number_of_resources 	44000
scalar Network800.node510 	time_period 	1
scalar Network800.node510 	number_of_messages 	7
scalar Network800.node510 	discovery_latency 	4284
scalar Network800.node510 	number_of_desired_resources 	20
scalar Network800.node510 	query_homogenity_rate 	33.333333333333
scalar Network800.node510 	qrecord_time 	9052
scalar Network800.node510 	discovery_resolution_rate 	33.333333333333
scalar Network800.node750 	rate_of_requesters 	1
scalar Network800.node750 	number_of_resources 	44000
scalar Network800.node750 	time_period 	1
scalar Network800.node750 	number_of_messages 	39
scalar Network800.node750 	discovery_latency 	4284
scalar Network800.node750 	number_of_desired_resources 	20
scalar Network800.node750 	query_homogenity_rate 	33.333333333333
scalar Network800.node750 	qrecord_time 	9052
scalar Network800.node750 	discovery_resolution_rate 	33.333333333333
scalar Network800.node470 	rate_of_requesters 	1
scalar Network800.node470 	number_of_resources 	44000
scalar Network800.node470 	time_period 	1
scalar Network800.node470 	number_of_messages 	12
scalar Network800.node470 	discovery_latency 	4236
scalar Network800.node470 	number_of_desired_resources 	20
scalar Network800.node470 	query_homogenity_rate 	33.333333333333
scalar Network800.node470 	qrecord_time 	9052
scalar Network800.node470 	discovery_resolution_rate 	33.333333333333
scalar Network800.node300 	rate_of_requesters 	1
scalar Network800.node300 	number_of_resources 	44000
scalar Network800.node300 	time_period 	1
scalar Network800.node300 	number_of_messages 	11
scalar Network800.node300 	discovery_latency 	4392
scalar Network800.node300 	number_of_desired_resources 	20
scalar Network800.node300 	query_homogenity_rate 	33.333333333333
scalar Network800.node300 	qrecord_time 	9058
scalar Network800.node300 	discovery_resolution_rate 	33.333333333333
scalar Network800.node390 	rate_of_requesters 	1
scalar Network800.node390 	number_of_resources 	44000
scalar Network800.node390 	time_period 	1
scalar Network800.node390 	number_of_messages 	13
scalar Network800.node390 	discovery_latency 	4392
scalar Network800.node390 	number_of_desired_resources 	20
scalar Network800.node390 	query_homogenity_rate 	33.333333333333
scalar Network800.node390 	qrecord_time 	9058
scalar Network800.node390 	discovery_resolution_rate 	33.333333333333
scalar Network800.node180 	rate_of_requesters 	1
scalar Network800.node180 	number_of_resources 	44000
scalar Network800.node180 	time_period 	1
scalar Network800.node180 	number_of_messages 	12
scalar Network800.node180 	discovery_latency 	4320
scalar Network800.node180 	number_of_desired_resources 	20
scalar Network800.node180 	query_homogenity_rate 	33.333333333333
scalar Network800.node180 	qrecord_time 	9058
scalar Network800.node180 	discovery_resolution_rate 	33.333333333333
scalar Network800.node440 	rate_of_requesters 	1
scalar Network800.node440 	number_of_resources 	44000
scalar Network800.node440 	time_period 	1
scalar Network800.node440 	number_of_messages 	6
scalar Network800.node440 	discovery_latency 	4296
scalar Network800.node440 	number_of_desired_resources 	20
scalar Network800.node440 	query_homogenity_rate 	33.333333333333
scalar Network800.node440 	qrecord_time 	9070
scalar Network800.node440 	discovery_resolution_rate 	33.333333333333
scalar Network800.node450 	rate_of_requesters 	1
scalar Network800.node450 	number_of_resources 	44000
scalar Network800.node450 	time_period 	1
scalar Network800.node450 	number_of_messages 	34
scalar Network800.node450 	discovery_latency 	4272
scalar Network800.node450 	number_of_desired_resources 	20
scalar Network800.node450 	query_homogenity_rate 	33.333333333333
scalar Network800.node450 	qrecord_time 	9070
scalar Network800.node450 	discovery_resolution_rate 	33.333333333333
scalar Network800.node570 	rate_of_requesters 	1
scalar Network800.node570 	number_of_resources 	44000
scalar Network800.node570 	time_period 	1
scalar Network800.node570 	number_of_messages 	74
scalar Network800.node570 	discovery_latency 	4380
scalar Network800.node570 	number_of_desired_resources 	20
scalar Network800.node570 	query_homogenity_rate 	33.333333333333
scalar Network800.node570 	qrecord_time 	9070
scalar Network800.node570 	discovery_resolution_rate 	33.333333333333
scalar Network800.node350 	rate_of_requesters 	1
scalar Network800.node350 	number_of_resources 	44000
scalar Network800.node350 	time_period 	1
scalar Network800.node350 	number_of_messages 	75
scalar Network800.node350 	discovery_latency 	4344
scalar Network800.node350 	number_of_desired_resources 	20
scalar Network800.node350 	query_homogenity_rate 	33.333333333333
scalar Network800.node350 	qrecord_time 	9076
scalar Network800.node350 	discovery_resolution_rate 	33.333333333333
scalar Network800.node590 	rate_of_requesters 	1
scalar Network800.node590 	number_of_resources 	44000
scalar Network800.node590 	time_period 	1
scalar Network800.node590 	number_of_messages 	24
scalar Network800.node590 	discovery_latency 	4344
scalar Network800.node590 	number_of_desired_resources 	20
scalar Network800.node590 	query_homogenity_rate 	33.333333333333
scalar Network800.node590 	qrecord_time 	9082
scalar Network800.node590 	discovery_resolution_rate 	66.666666666667
scalar Network800.node340 	rate_of_requesters 	1
scalar Network800.node340 	number_of_resources 	44000
scalar Network800.node340 	time_period 	1
scalar Network800.node340 	number_of_messages 	70
scalar Network800.node340 	discovery_latency 	4332
scalar Network800.node340 	number_of_desired_resources 	20
scalar Network800.node340 	query_homogenity_rate 	33.333333333333
scalar Network800.node340 	qrecord_time 	9082
scalar Network800.node340 	discovery_resolution_rate 	33.333333333333
scalar Network800.node110 	rate_of_requesters 	1
scalar Network800.node110 	number_of_resources 	44000
scalar Network800.node110 	time_period 	1
scalar Network800.node110 	number_of_messages 	16
scalar Network800.node110 	discovery_latency 	4356
scalar Network800.node110 	number_of_desired_resources 	20
scalar Network800.node110 	query_homogenity_rate 	33.333333333333
scalar Network800.node110 	qrecord_time 	9094
scalar Network800.node110 	discovery_resolution_rate 	33.333333333333
scalar Network800.node610 	rate_of_requesters 	1
scalar Network800.node610 	number_of_resources 	44000
scalar Network800.node610 	time_period 	1
scalar Network800.node610 	number_of_messages 	19
scalar Network800.node610 	discovery_latency 	4452
scalar Network800.node610 	number_of_desired_resources 	20
scalar Network800.node610 	query_homogenity_rate 	33.333333333333
scalar Network800.node610 	qrecord_time 	9100
scalar Network800.node610 	discovery_resolution_rate 	33.333333333333
scalar Network800.node370 	rate_of_requesters 	1
scalar Network800.node370 	number_of_resources 	44000
scalar Network800.node370 	time_period 	1
scalar Network800.node370 	number_of_messages 	17
scalar Network800.node370 	discovery_latency 	4380
scalar Network800.node370 	number_of_desired_resources 	20
scalar Network800.node370 	query_homogenity_rate 	33.333333333333
scalar Network800.node370 	qrecord_time 	9100
scalar Network800.node370 	discovery_resolution_rate 	33.333333333333
scalar Network800.node360 	rate_of_requesters 	1
scalar Network800.node360 	number_of_resources 	44000
scalar Network800.node360 	time_period 	1
scalar Network800.node360 	number_of_messages 	5
scalar Network800.node360 	discovery_latency 	4380
scalar Network800.node360 	number_of_desired_resources 	20
scalar Network800.node360 	query_homogenity_rate 	33.333333333333
scalar Network800.node360 	qrecord_time 	9112
scalar Network800.node360 	discovery_resolution_rate 	33.333333333333
scalar Network800.node250 	rate_of_requesters 	1
scalar Network800.node250 	number_of_resources 	44000
scalar Network800.node250 	time_period 	1
scalar Network800.node250 	number_of_messages 	4
scalar Network800.node250 	discovery_latency 	4428
scalar Network800.node250 	number_of_desired_resources 	20
scalar Network800.node250 	query_homogenity_rate 	33.333333333333
scalar Network800.node250 	qrecord_time 	9118
scalar Network800.node250 	discovery_resolution_rate 	33.333333333333
scalar Network800.node170 	rate_of_requesters 	1
scalar Network800.node170 	number_of_resources 	44000
scalar Network800.node170 	time_period 	1
scalar Network800.node170 	number_of_messages 	8
scalar Network800.node170 	discovery_latency 	4464
scalar Network800.node170 	number_of_desired_resources 	20
scalar Network800.node170 	query_homogenity_rate 	33.333333333333
scalar Network800.node170 	qrecord_time 	9130
scalar Network800.node170 	discovery_resolution_rate 	33.333333333333
scalar Network800.node640 	rate_of_requesters 	1
scalar Network800.node640 	number_of_resources 	44000
scalar Network800.node640 	time_period 	1
scalar Network800.node640 	number_of_messages 	39
scalar Network800.node640 	discovery_latency 	4368
scalar Network800.node640 	number_of_desired_resources 	20
scalar Network800.node640 	query_homogenity_rate 	33.333333333333
scalar Network800.node640 	qrecord_time 	9136
scalar Network800.node640 	discovery_resolution_rate 	33.333333333333
scalar Network800.node180 	rate_of_requesters 	1
scalar Network800.node180 	number_of_resources 	44000
scalar Network800.node180 	time_period 	2
scalar Network800.node180 	number_of_messages 	14
scalar Network800.node180 	discovery_latency 	4320
scalar Network800.node180 	number_of_desired_resources 	20
scalar Network800.node180 	query_homogenity_rate 	33.333333333333
scalar Network800.node180 	qrecord_time 	9137.054028148
scalar Network800.node180 	discovery_resolution_rate 	33.333333333333
scalar Network800.node290 	rate_of_requesters 	1
scalar Network800.node290 	number_of_resources 	44000
scalar Network800.node290 	time_period 	1
scalar Network800.node290 	number_of_messages 	16
scalar Network800.node290 	discovery_latency 	4416
scalar Network800.node290 	number_of_desired_resources 	20
scalar Network800.node290 	query_homogenity_rate 	33.333333333333
scalar Network800.node290 	qrecord_time 	9154
scalar Network800.node290 	discovery_resolution_rate 	33.333333333333
scalar Network800.node210 	rate_of_requesters 	1
scalar Network800.node210 	number_of_resources 	44000
scalar Network800.node210 	time_period 	1
scalar Network800.node210 	number_of_messages 	6
scalar Network800.node210 	discovery_latency 	4404
scalar Network800.node210 	number_of_desired_resources 	20
scalar Network800.node210 	query_homogenity_rate 	33.333333333333
scalar Network800.node210 	qrecord_time 	9178
scalar Network800.node210 	discovery_resolution_rate 	33.333333333333
scalar Network800.node760 	rate_of_requesters 	1
scalar Network800.node760 	number_of_resources 	44000
scalar Network800.node760 	time_period 	1
scalar Network800.node760 	number_of_messages 	68
scalar Network800.node760 	discovery_latency 	4380
scalar Network800.node760 	number_of_desired_resources 	20
scalar Network800.node760 	query_homogenity_rate 	33.333333333333
scalar Network800.node760 	qrecord_time 	9178
scalar Network800.node760 	discovery_resolution_rate 	33.333333333333
scalar Network800.node600 	rate_of_requesters 	1
scalar Network800.node600 	number_of_resources 	44000
scalar Network800.node600 	time_period 	1
scalar Network800.node600 	number_of_messages 	9
scalar Network800.node600 	discovery_latency 	4452
scalar Network800.node600 	number_of_desired_resources 	20
scalar Network800.node600 	query_homogenity_rate 	33.333333333333
scalar Network800.node600 	qrecord_time 	9184
scalar Network800.node600 	discovery_resolution_rate 	33.333333333333
scalar Network800.node50 	rate_of_requesters 	1
scalar Network800.node50 	number_of_resources 	44000
scalar Network800.node50 	time_period 	1
scalar Network800.node50 	number_of_messages 	62
scalar Network800.node50 	discovery_latency 	4476
scalar Network800.node50 	number_of_desired_resources 	20
scalar Network800.node50 	query_homogenity_rate 	33.333333333333
scalar Network800.node50 	qrecord_time 	9226
scalar Network800.node50 	discovery_resolution_rate 	66.666666666667
scalar Network800.node720 	rate_of_requesters 	1
scalar Network800.node720 	number_of_resources 	44000
scalar Network800.node720 	time_period 	1
scalar Network800.node720 	number_of_messages 	32
scalar Network800.node720 	discovery_latency 	4476
scalar Network800.node720 	number_of_desired_resources 	20
scalar Network800.node720 	query_homogenity_rate 	33.333333333333
scalar Network800.node720 	qrecord_time 	9226
scalar Network800.node720 	discovery_resolution_rate 	33.333333333333
scalar Network800.node780 	rate_of_requesters 	1
scalar Network800.node780 	number_of_resources 	44000
scalar Network800.node780 	time_period 	1
scalar Network800.node780 	number_of_messages 	12
scalar Network800.node780 	discovery_latency 	4464
scalar Network800.node780 	number_of_desired_resources 	20
scalar Network800.node780 	query_homogenity_rate 	33.333333333333
scalar Network800.node780 	qrecord_time 	9238
scalar Network800.node780 	discovery_resolution_rate 	33.333333333333
scalar Network800.node770 	rate_of_requesters 	1
scalar Network800.node770 	number_of_resources 	44000
scalar Network800.node770 	time_period 	1
scalar Network800.node770 	number_of_messages 	55
scalar Network800.node770 	discovery_latency 	4380
scalar Network800.node770 	number_of_desired_resources 	20
scalar Network800.node770 	query_homogenity_rate 	33.333333333333
scalar Network800.node770 	qrecord_time 	9274
scalar Network800.node770 	discovery_resolution_rate 	33.333333333333
scalar Network800.node360 	rate_of_requesters 	1
scalar Network800.node360 	number_of_resources 	44000
scalar Network800.node360 	time_period 	2
scalar Network800.node360 	number_of_messages 	37
scalar Network800.node360 	discovery_latency 	4296
scalar Network800.node360 	number_of_desired_resources 	20
scalar Network800.node360 	query_homogenity_rate 	33.333333333333
scalar Network800.node360 	qrecord_time 	9575.014533615
scalar Network800.node360 	discovery_resolution_rate 	33.333333333333
scalar Network800.node80 	rate_of_requesters 	1
scalar Network800.node80 	number_of_resources 	44000
scalar Network800.node80 	time_period 	2
scalar Network800.node80 	number_of_messages 	20
scalar Network800.node80 	discovery_latency 	4236
scalar Network800.node80 	number_of_desired_resources 	20
scalar Network800.node80 	query_homogenity_rate 	33.333333333333
scalar Network800.node80 	qrecord_time 	9578.322644373
scalar Network800.node80 	discovery_resolution_rate 	33.333333333333
scalar Network800.node250 	rate_of_requesters 	1
scalar Network800.node250 	number_of_resources 	44000
scalar Network800.node250 	time_period 	3
scalar Network800.node250 	number_of_messages 	10
scalar Network800.node250 	discovery_latency 	4188
scalar Network800.node250 	number_of_desired_resources 	20
scalar Network800.node250 	query_homogenity_rate 	33.333333333333
scalar Network800.node250 	qrecord_time 	9746.757608722
scalar Network800.node250 	discovery_resolution_rate 	33.333333333333
scalar Network800.node140 	rate_of_requesters 	1
scalar Network800.node140 	number_of_resources 	44000
scalar Network800.node140 	time_period 	2
scalar Network800.node140 	number_of_messages 	21
scalar Network800.node140 	discovery_latency 	4440
scalar Network800.node140 	number_of_desired_resources 	20
scalar Network800.node140 	query_homogenity_rate 	33.333333333333
scalar Network800.node140 	qrecord_time 	9792.520253718
scalar Network800.node140 	discovery_resolution_rate 	33.333333333333
scalar Network800.node520 	rate_of_requesters 	1
scalar Network800.node520 	number_of_resources 	44000
scalar Network800.node520 	time_period 	1
scalar Network800.node520 	number_of_messages 	296
scalar Network800.node520 	discovery_latency 	5844
scalar Network800.node520 	number_of_desired_resources 	20
scalar Network800.node520 	query_homogenity_rate 	33.333333333333
scalar Network800.node520 	qrecord_time 	10564
scalar Network800.node520 	discovery_resolution_rate 	16.666666666667
scalar Network800.node100 	rate_of_requesters 	1
scalar Network800.node100 	number_of_resources 	44000
scalar Network800.node100 	time_period 	1
scalar Network800.node100 	number_of_messages 	296
scalar Network800.node100 	discovery_latency 	5820
scalar Network800.node100 	number_of_desired_resources 	20
scalar Network800.node100 	query_homogenity_rate 	33.333333333333
scalar Network800.node100 	qrecord_time 	10564
scalar Network800.node100 	discovery_resolution_rate 	16.666666666667
scalar Network800.node270 	rate_of_requesters 	1
scalar Network800.node270 	number_of_resources 	44000
scalar Network800.node270 	time_period 	1
scalar Network800.node270 	number_of_messages 	2
scalar Network800.node270 	discovery_latency 	5976
scalar Network800.node270 	number_of_desired_resources 	20
scalar Network800.node270 	query_homogenity_rate 	33.333333333333
scalar Network800.node270 	qrecord_time 	10708
scalar Network800.node270 	discovery_resolution_rate 	0
scalar Network800.node700 	rate_of_requesters 	1
scalar Network800.node700 	number_of_resources 	44000
scalar Network800.node700 	time_period 	1
scalar Network800.node700 	number_of_messages 	2
scalar Network800.node700 	discovery_latency 	6024
scalar Network800.node700 	number_of_desired_resources 	20
scalar Network800.node700 	query_homogenity_rate 	33.333333333333
scalar Network800.node700 	qrecord_time 	10738
scalar Network800.node700 	discovery_resolution_rate 	0
scalar Network800.node20 	rate_of_requesters 	1
scalar Network800.node20 	number_of_resources 	44000
scalar Network800.node20 	time_period 	1
scalar Network800.node20 	number_of_messages 	0
scalar Network800.node20 	discovery_latency 	6048
scalar Network800.node20 	number_of_desired_resources 	20
scalar Network800.node20 	query_homogenity_rate 	33.333333333333
scalar Network800.node20 	qrecord_time 	10768
scalar Network800.node20 	discovery_resolution_rate 	0
scalar Network800.node630 	rate_of_requesters 	1
scalar Network800.node630 	number_of_resources 	44000
scalar Network800.node630 	time_period 	1
scalar Network800.node630 	number_of_messages 	2
scalar Network800.node630 	discovery_latency 	6000
scalar Network800.node630 	number_of_desired_resources 	20
scalar Network800.node630 	query_homogenity_rate 	33.333333333333
scalar Network800.node630 	qrecord_time 	10816
scalar Network800.node630 	discovery_resolution_rate 	0
scalar Network800.node140 	rate_of_requesters 	1
scalar Network800.node140 	number_of_resources 	44000
scalar Network800.node140 	time_period 	1
scalar Network800.node140 	number_of_messages 	2
scalar Network800.node140 	discovery_latency 	6108
scalar Network800.node140 	number_of_desired_resources 	20
scalar Network800.node140 	query_homogenity_rate 	33.333333333333
scalar Network800.node140 	qrecord_time 	10822
scalar Network800.node140 	discovery_resolution_rate 	0
scalar Network800.node530 	rate_of_requesters 	1
scalar Network800.node530 	number_of_resources 	44000
scalar Network800.node530 	time_period 	1
scalar Network800.node530 	number_of_messages 	7
scalar Network800.node530 	discovery_latency 	6072
scalar Network800.node530 	number_of_desired_resources 	20
scalar Network800.node530 	query_homogenity_rate 	33.333333333333
scalar Network800.node530 	qrecord_time 	10822
scalar Network800.node530 	discovery_resolution_rate 	33.333333333333
scalar Network800.node650 	rate_of_requesters 	1
scalar Network800.node650 	number_of_resources 	44000
scalar Network800.node650 	time_period 	1
scalar Network800.node650 	number_of_messages 	2
scalar Network800.node650 	discovery_latency 	6072
scalar Network800.node650 	number_of_desired_resources 	20
scalar Network800.node650 	query_homogenity_rate 	33.333333333333
scalar Network800.node650 	qrecord_time 	10822
scalar Network800.node650 	discovery_resolution_rate 	0
scalar Network800.node420 	rate_of_requesters 	1
scalar Network800.node420 	number_of_resources 	44000
scalar Network800.node420 	time_period 	1
scalar Network800.node420 	number_of_messages 	2
scalar Network800.node420 	discovery_latency 	6060
scalar Network800.node420 	number_of_desired_resources 	20
scalar Network800.node420 	query_homogenity_rate 	33.333333333333
scalar Network800.node420 	qrecord_time 	10834
scalar Network800.node420 	discovery_resolution_rate 	0
scalar Network800.node330 	rate_of_requesters 	1
scalar Network800.node330 	number_of_resources 	44000
scalar Network800.node330 	time_period 	1
scalar Network800.node330 	number_of_messages 	9
scalar Network800.node330 	discovery_latency 	6132
scalar Network800.node330 	number_of_desired_resources 	20
scalar Network800.node330 	query_homogenity_rate 	33.333333333333
scalar Network800.node330 	qrecord_time 	10858
scalar Network800.node330 	discovery_resolution_rate 	33.333333333333
scalar Network800.node430 	rate_of_requesters 	1
scalar Network800.node430 	number_of_resources 	44000
scalar Network800.node430 	time_period 	1
scalar Network800.node430 	number_of_messages 	480
scalar Network800.node430 	discovery_latency 	6108
scalar Network800.node430 	number_of_desired_resources 	20
scalar Network800.node430 	query_homogenity_rate 	33.333333333333
scalar Network800.node430 	qrecord_time 	10864
scalar Network800.node430 	discovery_resolution_rate 	33.333333333333
scalar Network800.node790 	rate_of_requesters 	1
scalar Network800.node790 	number_of_resources 	44000
scalar Network800.node790 	time_period 	1
scalar Network800.node790 	number_of_messages 	2
scalar Network800.node790 	discovery_latency 	6060
scalar Network800.node790 	number_of_desired_resources 	20
scalar Network800.node790 	query_homogenity_rate 	33.333333333333
scalar Network800.node790 	qrecord_time 	10870
scalar Network800.node790 	discovery_resolution_rate 	0
scalar Network800.node740 	rate_of_requesters 	1
scalar Network800.node740 	number_of_resources 	44000
scalar Network800.node740 	time_period 	2
scalar Network800.node740 	number_of_messages 	5
scalar Network800.node740 	discovery_latency 	6096
scalar Network800.node740 	number_of_desired_resources 	20
scalar Network800.node740 	query_homogenity_rate 	33.333333333333
scalar Network800.node740 	qrecord_time 	10874.311562403
scalar Network800.node740 	discovery_resolution_rate 	33.333333333333
scalar Network800.node490 	rate_of_requesters 	1
scalar Network800.node490 	number_of_resources 	44000
scalar Network800.node490 	time_period 	1
scalar Network800.node490 	number_of_messages 	2
scalar Network800.node490 	discovery_latency 	6012
scalar Network800.node490 	number_of_desired_resources 	20
scalar Network800.node490 	query_homogenity_rate 	33.333333333333
scalar Network800.node490 	qrecord_time 	10888
scalar Network800.node490 	discovery_resolution_rate 	0
scalar Network800.node410 	rate_of_requesters 	1
scalar Network800.node410 	number_of_resources 	44000
scalar Network800.node410 	time_period 	1
scalar Network800.node410 	number_of_messages 	2
scalar Network800.node410 	discovery_latency 	5988
scalar Network800.node410 	number_of_desired_resources 	20
scalar Network800.node410 	query_homogenity_rate 	33.333333333333
scalar Network800.node410 	qrecord_time 	10906
scalar Network800.node410 	discovery_resolution_rate 	0
scalar Network800.node120 	rate_of_requesters 	1
scalar Network800.node120 	number_of_resources 	44000
scalar Network800.node120 	time_period 	1
scalar Network800.node120 	number_of_messages 	296
scalar Network800.node120 	discovery_latency 	6144
scalar Network800.node120 	number_of_desired_resources 	20
scalar Network800.node120 	query_homogenity_rate 	33.333333333333
scalar Network800.node120 	qrecord_time 	10912
scalar Network800.node120 	discovery_resolution_rate 	16.666666666667
scalar Network800.node680 	rate_of_requesters 	1
scalar Network800.node680 	number_of_resources 	44000
scalar Network800.node680 	time_period 	1
scalar Network800.node680 	number_of_messages 	2
scalar Network800.node680 	discovery_latency 	6048
scalar Network800.node680 	number_of_desired_resources 	20
scalar Network800.node680 	query_homogenity_rate 	33.333333333333
scalar Network800.node680 	qrecord_time 	10930
scalar Network800.node680 	discovery_resolution_rate 	0
scalar Network800.node540 	rate_of_requesters 	1
scalar Network800.node540 	number_of_resources 	44000
scalar Network800.node540 	time_period 	2
scalar Network800.node540 	number_of_messages 	2
scalar Network800.node540 	discovery_latency 	6036
scalar Network800.node540 	number_of_desired_resources 	20
scalar Network800.node540 	query_homogenity_rate 	33.333333333333
scalar Network800.node540 	qrecord_time 	10941.867079137
scalar Network800.node540 	discovery_resolution_rate 	0
scalar Network800.node460 	rate_of_requesters 	1
scalar Network800.node460 	number_of_resources 	44000
scalar Network800.node460 	time_period 	1
scalar Network800.node460 	number_of_messages 	298
scalar Network800.node460 	discovery_latency 	6240
scalar Network800.node460 	number_of_desired_resources 	20
scalar Network800.node460 	query_homogenity_rate 	33.333333333333
scalar Network800.node460 	qrecord_time 	10966
scalar Network800.node460 	discovery_resolution_rate 	16.666666666667
scalar Network800.node690 	rate_of_requesters 	1
scalar Network800.node690 	number_of_resources 	44000
scalar Network800.node690 	time_period 	1
scalar Network800.node690 	number_of_messages 	2
scalar Network800.node690 	discovery_latency 	6252
scalar Network800.node690 	number_of_desired_resources 	20
scalar Network800.node690 	query_homogenity_rate 	33.333333333333
scalar Network800.node690 	qrecord_time 	10978
scalar Network800.node690 	discovery_resolution_rate 	0
scalar Network800.node60 	rate_of_requesters 	1
scalar Network800.node60 	number_of_resources 	44000
scalar Network800.node60 	time_period 	1
scalar Network800.node60 	number_of_messages 	2
scalar Network800.node60 	discovery_latency 	6276
scalar Network800.node60 	number_of_desired_resources 	20
scalar Network800.node60 	query_homogenity_rate 	33.333333333333
scalar Network800.node60 	qrecord_time 	10990
scalar Network800.node60 	discovery_resolution_rate 	0
scalar Network800.node660 	rate_of_requesters 	1
scalar Network800.node660 	number_of_resources 	44000
scalar Network800.node660 	time_period 	1
scalar Network800.node660 	number_of_messages 	298
scalar Network800.node660 	discovery_latency 	6300
scalar Network800.node660 	number_of_desired_resources 	20
scalar Network800.node660 	query_homogenity_rate 	33.333333333333
scalar Network800.node660 	qrecord_time 	11026
scalar Network800.node660 	discovery_resolution_rate 	16.666666666667
scalar Network800.node620 	rate_of_requesters 	1
scalar Network800.node620 	number_of_resources 	44000
scalar Network800.node620 	time_period 	1
scalar Network800.node620 	number_of_messages 	17
scalar Network800.node620 	discovery_latency 	6276
scalar Network800.node620 	number_of_desired_resources 	20
scalar Network800.node620 	query_homogenity_rate 	33.333333333333
scalar Network800.node620 	qrecord_time 	11032
scalar Network800.node620 	discovery_resolution_rate 	33.333333333333
scalar Network800.node540 	rate_of_requesters 	1
scalar Network800.node540 	number_of_resources 	44000
scalar Network800.node540 	time_period 	1
scalar Network800.node540 	number_of_messages 	18
scalar Network800.node540 	discovery_latency 	6348
scalar Network800.node540 	number_of_desired_resources 	20
scalar Network800.node540 	query_homogenity_rate 	33.333333333333
scalar Network800.node540 	qrecord_time 	11056
scalar Network800.node540 	discovery_resolution_rate 	33.333333333333
scalar Network800.node190 	rate_of_requesters 	1
scalar Network800.node190 	number_of_resources 	44000
scalar Network800.node190 	time_period 	2
scalar Network800.node190 	number_of_messages 	2
scalar Network800.node190 	discovery_latency 	6048
scalar Network800.node190 	number_of_desired_resources 	20
scalar Network800.node190 	query_homogenity_rate 	33.333333333333
scalar Network800.node190 	qrecord_time 	11098.834866337
scalar Network800.node190 	discovery_resolution_rate 	0
scalar Network800.node460 	rate_of_requesters 	1
scalar Network800.node460 	number_of_resources 	44000
scalar Network800.node460 	time_period 	2
scalar Network800.node460 	number_of_messages 	2
scalar Network800.node460 	discovery_latency 	6072
scalar Network800.node460 	number_of_desired_resources 	20
scalar Network800.node460 	query_homogenity_rate 	33.333333333333
scalar Network800.node460 	qrecord_time 	11105.503324615
scalar Network800.node460 	discovery_resolution_rate 	0
scalar Network800.node580 	rate_of_requesters 	1
scalar Network800.node580 	number_of_resources 	44000
scalar Network800.node580 	time_period 	2
scalar Network800.node580 	number_of_messages 	2
scalar Network800.node580 	discovery_latency 	5952
scalar Network800.node580 	number_of_desired_resources 	20
scalar Network800.node580 	query_homogenity_rate 	33.333333333333
scalar Network800.node580 	qrecord_time 	11129.859779324
scalar Network800.node580 	discovery_resolution_rate 	0
scalar Network800.node490 	rate_of_requesters 	1
scalar Network800.node490 	number_of_resources 	44000
scalar Network800.node490 	time_period 	2
scalar Network800.node490 	number_of_messages 	2
scalar Network800.node490 	discovery_latency 	5928
scalar Network800.node490 	number_of_desired_resources 	20
scalar Network800.node490 	query_homogenity_rate 	33.333333333333
scalar Network800.node490 	qrecord_time 	11131.341676758
scalar Network800.node490 	discovery_resolution_rate 	0
scalar Network800.node250 	rate_of_requesters 	1
scalar Network800.node250 	number_of_resources 	44000
scalar Network800.node250 	time_period 	2
scalar Network800.node250 	number_of_messages 	2
scalar Network800.node250 	discovery_latency 	6012
scalar Network800.node250 	number_of_desired_resources 	20
scalar Network800.node250 	query_homogenity_rate 	33.333333333333
scalar Network800.node250 	qrecord_time 	11211.58432295
scalar Network800.node250 	discovery_resolution_rate 	0
scalar Network800.node30 	rate_of_requesters 	1
scalar Network800.node30 	number_of_resources 	44000
scalar Network800.node30 	time_period 	2
scalar Network800.node30 	number_of_messages 	2
scalar Network800.node30 	discovery_latency 	6024
scalar Network800.node30 	number_of_desired_resources 	20
scalar Network800.node30 	query_homogenity_rate 	33.333333333333
scalar Network800.node30 	qrecord_time 	11446.833896914
scalar Network800.node30 	discovery_resolution_rate 	0
scalar Network800.node740 	rate_of_requesters 	1
scalar Network800.node740 	number_of_resources 	44000
scalar Network800.node740 	time_period 	3
scalar Network800.node740 	number_of_messages 	2
scalar Network800.node740 	discovery_latency 	6108
scalar Network800.node740 	number_of_desired_resources 	20
scalar Network800.node740 	query_homogenity_rate 	33.333333333333
scalar Network800.node740 	qrecord_time 	11567.112318284
scalar Network800.node740 	discovery_resolution_rate 	0
scalar Network800.node320 	rate_of_requesters 	1
scalar Network800.node320 	number_of_resources 	44000
scalar Network800.node320 	time_period 	2
scalar Network800.node320 	number_of_messages 	2
scalar Network800.node320 	discovery_latency 	6084
scalar Network800.node320 	number_of_desired_resources 	20
scalar Network800.node320 	query_homogenity_rate 	33.333333333333
scalar Network800.node320 	qrecord_time 	11578.388949767
scalar Network800.node320 	discovery_resolution_rate 	0
scalar Network800.node310 	rate_of_requesters 	1
scalar Network800.node310 	number_of_resources 	44000
scalar Network800.node310 	time_period 	2
scalar Network800.node310 	number_of_messages 	2
scalar Network800.node310 	discovery_latency 	5976
scalar Network800.node310 	number_of_desired_resources 	20
scalar Network800.node310 	query_homogenity_rate 	33.333333333333
scalar Network800.node310 	qrecord_time 	11612.56282032
scalar Network800.node310 	discovery_resolution_rate 	0
scalar Network800.node230 	rate_of_requesters 	1
scalar Network800.node230 	number_of_resources 	44000
scalar Network800.node230 	time_period 	2
scalar Network800.node230 	number_of_messages 	2
scalar Network800.node230 	discovery_latency 	6144
scalar Network800.node230 	number_of_desired_resources 	20
scalar Network800.node230 	query_homogenity_rate 	33.333333333333
scalar Network800.node230 	qrecord_time 	11625.773591431
scalar Network800.node230 	discovery_resolution_rate 	0
scalar Network800.node640 	rate_of_requesters 	1
scalar Network800.node640 	number_of_resources 	44000
scalar Network800.node640 	time_period 	2
scalar Network800.node640 	number_of_messages 	2
scalar Network800.node640 	discovery_latency 	5940
scalar Network800.node640 	number_of_desired_resources 	20
scalar Network800.node640 	query_homogenity_rate 	33.333333333333
scalar Network800.node640 	qrecord_time 	11626.820370199
scalar Network800.node640 	discovery_resolution_rate 	0
scalar Network800.node370 	rate_of_requesters 	1
scalar Network800.node370 	number_of_resources 	44000
scalar Network800.node370 	time_period 	2
scalar Network800.node370 	number_of_messages 	0
scalar Network800.node370 	discovery_latency 	6024
scalar Network800.node370 	number_of_desired_resources 	20
scalar Network800.node370 	query_homogenity_rate 	33.333333333333
scalar Network800.node370 	qrecord_time 	11759.710180213
scalar Network800.node370 	discovery_resolution_rate 	0
scalar Network800.node540 	rate_of_requesters 	1
scalar Network800.node540 	number_of_resources 	44000
scalar Network800.node540 	time_period 	3
scalar Network800.node540 	number_of_messages 	2
scalar Network800.node540 	discovery_latency 	6204
scalar Network800.node540 	number_of_desired_resources 	20
scalar Network800.node540 	query_homogenity_rate 	33.333333333333
scalar Network800.node540 	qrecord_time 	11825.944900706
scalar Network800.node540 	discovery_resolution_rate 	0
scalar Network800.node760 	rate_of_requesters 	1
scalar Network800.node760 	number_of_resources 	44000
scalar Network800.node760 	time_period 	2
scalar Network800.node760 	number_of_messages 	2
scalar Network800.node760 	discovery_latency 	6024
scalar Network800.node760 	number_of_desired_resources 	20
scalar Network800.node760 	query_homogenity_rate 	33.333333333333
scalar Network800.node760 	qrecord_time 	11902.51803746
scalar Network800.node760 	discovery_resolution_rate 	0
scalar Network800.node460 	rate_of_requesters 	1
scalar Network800.node460 	number_of_resources 	44000
scalar Network800.node460 	time_period 	3
scalar Network800.node460 	number_of_messages 	2
scalar Network800.node460 	discovery_latency 	6000
scalar Network800.node460 	number_of_desired_resources 	20
scalar Network800.node460 	query_homogenity_rate 	33.333333333333
scalar Network800.node460 	qrecord_time 	11960.887550869
scalar Network800.node460 	discovery_resolution_rate 	0
scalar Network800.node500 	rate_of_requesters 	1
scalar Network800.node500 	number_of_resources 	44000
scalar Network800.node500 	time_period 	2
scalar Network800.node500 	number_of_messages 	2
scalar Network800.node500 	discovery_latency 	6060
scalar Network800.node500 	number_of_desired_resources 	20
scalar Network800.node500 	query_homogenity_rate 	33.333333333333
scalar Network800.node500 	qrecord_time 	11975.879228883
scalar Network800.node500 	discovery_resolution_rate 	0
scalar Network800.node80 	rate_of_requesters 	1
scalar Network800.node80 	number_of_resources 	44000
scalar Network800.node80 	time_period 	3
scalar Network800.node80 	number_of_messages 	2
scalar Network800.node80 	discovery_latency 	6096
scalar Network800.node80 	number_of_desired_resources 	20
scalar Network800.node80 	query_homogenity_rate 	33.333333333333
scalar Network800.node80 	qrecord_time 	11984.218111674
scalar Network800.node80 	discovery_resolution_rate 	0
scalar Network800.node150 	rate_of_requesters 	1
scalar Network800.node150 	number_of_resources 	44000
scalar Network800.node150 	time_period 	3
scalar Network800.node150 	number_of_messages 	2
scalar Network800.node150 	discovery_latency 	5964
scalar Network800.node150 	number_of_desired_resources 	20
scalar Network800.node150 	query_homogenity_rate 	33.333333333333
scalar Network800.node150 	qrecord_time 	12092.732308815
scalar Network800.node150 	discovery_resolution_rate 	0
scalar Network800.node100 	rate_of_requesters 	1
scalar Network800.node100 	number_of_resources 	44000
scalar Network800.node100 	time_period 	2
scalar Network800.node100 	number_of_messages 	0
scalar Network800.node100 	discovery_latency 	6168
scalar Network800.node100 	number_of_desired_resources 	20
scalar Network800.node100 	query_homogenity_rate 	33.333333333333
scalar Network800.node100 	qrecord_time 	12152.661738266
scalar Network800.node100 	discovery_resolution_rate 	0
scalar Network800.node300 	rate_of_requesters 	1
scalar Network800.node300 	number_of_resources 	44000
scalar Network800.node300 	time_period 	2
scalar Network800.node300 	number_of_messages 	2
scalar Network800.node300 	discovery_latency 	6084
scalar Network800.node300 	number_of_desired_resources 	20
scalar Network800.node300 	query_homogenity_rate 	33.333333333333
scalar Network800.node300 	qrecord_time 	12153.528583674
scalar Network800.node300 	discovery_resolution_rate 	0
scalar Network800.node710 	rate_of_requesters 	1
scalar Network800.node710 	number_of_resources 	44000
scalar Network800.node710 	time_period 	2
scalar Network800.node710 	number_of_messages 	2
scalar Network800.node710 	discovery_latency 	6120
scalar Network800.node710 	number_of_desired_resources 	20
scalar Network800.node710 	query_homogenity_rate 	33.333333333333
scalar Network800.node710 	qrecord_time 	12187.628614042
scalar Network800.node710 	discovery_resolution_rate 	0
scalar Network800.node770 	rate_of_requesters 	1
scalar Network800.node770 	number_of_resources 	44000
scalar Network800.node770 	time_period 	2
scalar Network800.node770 	number_of_messages 	2
scalar Network800.node770 	discovery_latency 	6084
scalar Network800.node770 	number_of_desired_resources 	20
scalar Network800.node770 	query_homogenity_rate 	33.333333333333
scalar Network800.node770 	qrecord_time 	12242.375879011
scalar Network800.node770 	discovery_resolution_rate 	0
scalar Network800.node360 	rate_of_requesters 	1
scalar Network800.node360 	number_of_resources 	44000
scalar Network800.node360 	time_period 	3
scalar Network800.node360 	number_of_messages 	2
scalar Network800.node360 	discovery_latency 	6024
scalar Network800.node360 	number_of_desired_resources 	20
scalar Network800.node360 	query_homogenity_rate 	33.333333333333
scalar Network800.node360 	qrecord_time 	12279.931755581
scalar Network800.node360 	discovery_resolution_rate 	0
scalar Network800.node30 	rate_of_requesters 	1
scalar Network800.node30 	number_of_resources 	44000
scalar Network800.node30 	time_period 	3
scalar Network800.node30 	number_of_messages 	2
scalar Network800.node30 	discovery_latency 	6024
scalar Network800.node30 	number_of_desired_resources 	20
scalar Network800.node30 	query_homogenity_rate 	33.333333333333
scalar Network800.node30 	qrecord_time 	12286.847626747
scalar Network800.node30 	discovery_resolution_rate 	0
scalar Network800.node80 	rate_of_requesters 	1
scalar Network800.node80 	number_of_resources 	44000
scalar Network800.node80 	time_period 	4
scalar Network800.node80 	number_of_messages 	2
scalar Network800.node80 	discovery_latency 	6048
scalar Network800.node80 	number_of_desired_resources 	20
scalar Network800.node80 	query_homogenity_rate 	33.333333333333
scalar Network800.node80 	qrecord_time 	12287.446177297
scalar Network800.node80 	discovery_resolution_rate 	0
scalar Network800.node170 	rate_of_requesters 	1
scalar Network800.node170 	number_of_resources 	44000
scalar Network800.node170 	time_period 	2
scalar Network800.node170 	number_of_messages 	2
scalar Network800.node170 	discovery_latency 	6072
scalar Network800.node170 	number_of_desired_resources 	20
scalar Network800.node170 	query_homogenity_rate 	33.333333333333
scalar Network800.node170 	qrecord_time 	12303.74021438
scalar Network800.node170 	discovery_resolution_rate 	0
scalar Network800.node370 	rate_of_requesters 	1
scalar Network800.node370 	number_of_resources 	44000
scalar Network800.node370 	time_period 	3
scalar Network800.node370 	number_of_messages 	0
scalar Network800.node370 	discovery_latency 	6036
scalar Network800.node370 	number_of_desired_resources 	20
scalar Network800.node370 	query_homogenity_rate 	33.333333333333
scalar Network800.node370 	qrecord_time 	12350.853242358
scalar Network800.node370 	discovery_resolution_rate 	0
scalar Network800.node570 	rate_of_requesters 	1
scalar Network800.node570 	number_of_resources 	44000
scalar Network800.node570 	time_period 	2
scalar Network800.node570 	number_of_messages 	2
scalar Network800.node570 	discovery_latency 	5904
scalar Network800.node570 	number_of_desired_resources 	20
scalar Network800.node570 	query_homogenity_rate 	33.333333333333
scalar Network800.node570 	qrecord_time 	12399.653728446
scalar Network800.node570 	discovery_resolution_rate 	0
scalar Network800.node260 	rate_of_requesters 	1
scalar Network800.node260 	number_of_resources 	44000
scalar Network800.node260 	time_period 	2
scalar Network800.node260 	number_of_messages 	2
scalar Network800.node260 	discovery_latency 	6060
scalar Network800.node260 	number_of_desired_resources 	20
scalar Network800.node260 	query_homogenity_rate 	33.333333333333
scalar Network800.node260 	qrecord_time 	12407.587007258
scalar Network800.node260 	discovery_resolution_rate 	0
scalar Network800.node340 	rate_of_requesters 	1
scalar Network800.node340 	number_of_resources 	44000
scalar Network800.node340 	time_period 	2
scalar Network800.node340 	number_of_messages 	2
scalar Network800.node340 	discovery_latency 	6072
scalar Network800.node340 	number_of_desired_resources 	20
scalar Network800.node340 	query_homogenity_rate 	33.333333333333
scalar Network800.node340 	qrecord_time 	12411.626880155
scalar Network800.node340 	discovery_resolution_rate 	0
scalar Network800.node250 	rate_of_requesters 	1
scalar Network800.node250 	number_of_resources 	44000
scalar Network800.node250 	time_period 	4
scalar Network800.node250 	number_of_messages 	2
scalar Network800.node250 	discovery_latency 	6060
scalar Network800.node250 	number_of_desired_resources 	20
scalar Network800.node250 	query_homogenity_rate 	33.333333333333
scalar Network800.node250 	qrecord_time 	12414.13977548
scalar Network800.node250 	discovery_resolution_rate 	0
scalar Network800.node130 	rate_of_requesters 	1
scalar Network800.node130 	number_of_resources 	44000
scalar Network800.node130 	time_period 	2
scalar Network800.node130 	number_of_messages 	2
scalar Network800.node130 	discovery_latency 	6084
scalar Network800.node130 	number_of_desired_resources 	20
scalar Network800.node130 	query_homogenity_rate 	33.333333333333
scalar Network800.node130 	qrecord_time 	12628.445748671
scalar Network800.node130 	discovery_resolution_rate 	0
scalar Network800.node740 	rate_of_requesters 	1
scalar Network800.node740 	number_of_resources 	44000
scalar Network800.node740 	time_period 	5
scalar Network800.node740 	number_of_messages 	157
scalar Network800.node740 	discovery_latency 	4440
scalar Network800.node740 	number_of_desired_resources 	20
scalar Network800.node740 	query_homogenity_rate 	33.333333333333
scalar Network800.node740 	qrecord_time 	12650.48719611
scalar Network800.node740 	discovery_resolution_rate 	33.333333333333
scalar Network800.node760 	rate_of_requesters 	1
scalar Network800.node760 	number_of_resources 	44000
scalar Network800.node760 	time_period 	3
scalar Network800.node760 	number_of_messages 	2
scalar Network800.node760 	discovery_latency 	6108
scalar Network800.node760 	number_of_desired_resources 	20
scalar Network800.node760 	query_homogenity_rate 	33.333333333333
scalar Network800.node760 	qrecord_time 	12674.087663135
scalar Network800.node760 	discovery_resolution_rate 	0
scalar Network800.node510 	rate_of_requesters 	1
scalar Network800.node510 	number_of_resources 	44000
scalar Network800.node510 	time_period 	2
scalar Network800.node510 	number_of_messages 	2
scalar Network800.node510 	discovery_latency 	5892
scalar Network800.node510 	number_of_desired_resources 	20
scalar Network800.node510 	query_homogenity_rate 	33.333333333333
scalar Network800.node510 	qrecord_time 	12863.616559827
scalar Network800.node510 	discovery_resolution_rate 	0
scalar Network800.node630 	rate_of_requesters 	1
scalar Network800.node630 	number_of_resources 	44000
scalar Network800.node630 	time_period 	2
scalar Network800.node630 	number_of_messages 	2
scalar Network800.node630 	discovery_latency 	5988
scalar Network800.node630 	number_of_desired_resources 	20
scalar Network800.node630 	query_homogenity_rate 	33.333333333333
scalar Network800.node630 	qrecord_time 	12880.818041702
scalar Network800.node630 	discovery_resolution_rate 	0
scalar Network800.node740 	rate_of_requesters 	1
scalar Network800.node740 	number_of_resources 	44000
scalar Network800.node740 	time_period 	4
scalar Network800.node740 	number_of_messages 	2
scalar Network800.node740 	discovery_latency 	6012
scalar Network800.node740 	number_of_desired_resources 	20
scalar Network800.node740 	query_homogenity_rate 	33.333333333333
scalar Network800.node740 	qrecord_time 	12898.397180897
scalar Network800.node740 	discovery_resolution_rate 	0
scalar Network800.node610 	rate_of_requesters 	1
scalar Network800.node610 	number_of_resources 	44000
scalar Network800.node610 	time_period 	2
scalar Network800.node610 	number_of_messages 	0
scalar Network800.node610 	discovery_latency 	6096
scalar Network800.node610 	number_of_desired_resources 	20
scalar Network800.node610 	query_homogenity_rate 	33.333333333333
scalar Network800.node610 	qrecord_time 	12964.303605689
scalar Network800.node610 	discovery_resolution_rate 	0
scalar Network800.node270 	rate_of_requesters 	1
scalar Network800.node270 	number_of_resources 	44000
scalar Network800.node270 	time_period 	2
scalar Network800.node270 	number_of_messages 	2
scalar Network800.node270 	discovery_latency 	6156
scalar Network800.node270 	number_of_desired_resources 	20
scalar Network800.node270 	query_homogenity_rate 	33.333333333333
scalar Network800.node270 	qrecord_time 	12971.8844029
scalar Network800.node270 	discovery_resolution_rate 	0
scalar Network800.node70 	rate_of_requesters 	1
scalar Network800.node70 	number_of_resources 	44000
scalar Network800.node70 	time_period 	2
scalar Network800.node70 	number_of_messages 	2
scalar Network800.node70 	discovery_latency 	6132
scalar Network800.node70 	number_of_desired_resources 	20
scalar Network800.node70 	query_homogenity_rate 	33.333333333333
scalar Network800.node70 	qrecord_time 	12986.605173382
scalar Network800.node70 	discovery_resolution_rate 	0
scalar Network800.node10 	rate_of_requesters 	1
scalar Network800.node10 	number_of_resources 	44000
scalar Network800.node10 	time_period 	2
scalar Network800.node10 	number_of_messages 	2
scalar Network800.node10 	discovery_latency 	5976
scalar Network800.node10 	number_of_desired_resources 	20
scalar Network800.node10 	query_homogenity_rate 	33.333333333333
scalar Network800.node10 	qrecord_time 	13013.310120147
scalar Network800.node10 	discovery_resolution_rate 	0
scalar Network800.node240 	rate_of_requesters 	1
scalar Network800.node240 	number_of_resources 	44000
scalar Network800.node240 	time_period 	2
scalar Network800.node240 	number_of_messages 	2
scalar Network800.node240 	discovery_latency 	6276
scalar Network800.node240 	number_of_desired_resources 	20
scalar Network800.node240 	query_homogenity_rate 	33.333333333333
scalar Network800.node240 	qrecord_time 	13097.282357681
scalar Network800.node240 	discovery_resolution_rate 	0
scalar Network800.node640 	rate_of_requesters 	1
scalar Network800.node640 	number_of_resources 	44000
scalar Network800.node640 	time_period 	3
scalar Network800.node640 	number_of_messages 	2
scalar Network800.node640 	discovery_latency 	6024
scalar Network800.node640 	number_of_desired_resources 	20
scalar Network800.node640 	query_homogenity_rate 	33.333333333333
scalar Network800.node640 	qrecord_time 	13126.130178026
scalar Network800.node640 	discovery_resolution_rate 	0
scalar Network800.node710 	rate_of_requesters 	1
scalar Network800.node710 	number_of_resources 	44000
scalar Network800.node710 	time_period 	3
scalar Network800.node710 	number_of_messages 	2
scalar Network800.node710 	discovery_latency 	5964
scalar Network800.node710 	number_of_desired_resources 	20
scalar Network800.node710 	query_homogenity_rate 	33.333333333333
scalar Network800.node710 	qrecord_time 	13200.41184865
scalar Network800.node710 	discovery_resolution_rate 	0
scalar Network800.node430 	rate_of_requesters 	1
scalar Network800.node430 	number_of_resources 	44000
scalar Network800.node430 	time_period 	2
scalar Network800.node430 	number_of_messages 	2
scalar Network800.node430 	discovery_latency 	5976
scalar Network800.node430 	number_of_desired_resources 	20
scalar Network800.node430 	query_homogenity_rate 	33.333333333333
scalar Network800.node430 	qrecord_time 	13205.828017937
scalar Network800.node430 	discovery_resolution_rate 	0
scalar Network800.node370 	rate_of_requesters 	1
scalar Network800.node370 	number_of_resources 	44000
scalar Network800.node370 	time_period 	4
scalar Network800.node370 	number_of_messages 	0
scalar Network800.node370 	discovery_latency 	5940
scalar Network800.node370 	number_of_desired_resources 	20
scalar Network800.node370 	query_homogenity_rate 	33.333333333333
scalar Network800.node370 	qrecord_time 	13280.788096653
scalar Network800.node370 	discovery_resolution_rate 	0
scalar Network800.node490 	rate_of_requesters 	1
scalar Network800.node490 	number_of_resources 	44000
scalar Network800.node490 	time_period 	3
scalar Network800.node490 	number_of_messages 	2
scalar Network800.node490 	discovery_latency 	6120
scalar Network800.node490 	number_of_desired_resources 	20
scalar Network800.node490 	query_homogenity_rate 	33.333333333333
scalar Network800.node490 	qrecord_time 	13289.726911479
scalar Network800.node490 	discovery_resolution_rate 	0
scalar Network800.node230 	rate_of_requesters 	1
scalar Network800.node230 	number_of_resources 	44000
scalar Network800.node230 	time_period 	3
scalar Network800.node230 	number_of_messages 	2
scalar Network800.node230 	discovery_latency 	5940
scalar Network800.node230 	number_of_desired_resources 	20
scalar Network800.node230 	query_homogenity_rate 	33.333333333333
scalar Network800.node230 	qrecord_time 	13296.505877907
scalar Network800.node230 	discovery_resolution_rate 	0
scalar Network800.node90 	rate_of_requesters 	1
scalar Network800.node90 	number_of_resources 	44000
scalar Network800.node90 	time_period 	2
scalar Network800.node90 	number_of_messages 	104
scalar Network800.node90 	discovery_latency 	4332
scalar Network800.node90 	number_of_desired_resources 	20
scalar Network800.node90 	query_homogenity_rate 	33.333333333333
scalar Network800.node90 	qrecord_time 	13306.904190312
scalar Network800.node90 	discovery_resolution_rate 	33.333333333333
scalar Network800.node440 	rate_of_requesters 	1
scalar Network800.node440 	number_of_resources 	44000
scalar Network800.node440 	time_period 	2
scalar Network800.node440 	number_of_messages 	2
scalar Network800.node440 	discovery_latency 	5952
scalar Network800.node440 	number_of_desired_resources 	20
scalar Network800.node440 	query_homogenity_rate 	33.333333333333
scalar Network800.node440 	qrecord_time 	13314.932267735
scalar Network800.node440 	discovery_resolution_rate 	0
scalar Network800.node570 	rate_of_requesters 	1
scalar Network800.node570 	number_of_resources 	44000
scalar Network800.node570 	time_period 	3
scalar Network800.node570 	number_of_messages 	2
scalar Network800.node570 	discovery_latency 	6036
scalar Network800.node570 	number_of_desired_resources 	20
scalar Network800.node570 	query_homogenity_rate 	33.333333333333
scalar Network800.node570 	qrecord_time 	13329.330879074
scalar Network800.node570 	discovery_resolution_rate 	0
scalar Network800.node470 	rate_of_requesters 	1
scalar Network800.node470 	number_of_resources 	44000
scalar Network800.node470 	time_period 	2
scalar Network800.node470 	number_of_messages 	0
scalar Network800.node470 	discovery_latency 	5808
scalar Network800.node470 	number_of_desired_resources 	20
scalar Network800.node470 	query_homogenity_rate 	33.333333333333
scalar Network800.node470 	qrecord_time 	13356.118363984
scalar Network800.node470 	discovery_resolution_rate 	0
scalar Network800.node210 	rate_of_requesters 	1
scalar Network800.node210 	number_of_resources 	44000
scalar Network800.node210 	time_period 	2
scalar Network800.node210 	number_of_messages 	74
scalar Network800.node210 	discovery_latency 	4236
scalar Network800.node210 	number_of_desired_resources 	20
scalar Network800.node210 	query_homogenity_rate 	33.333333333333
scalar Network800.node210 	qrecord_time 	13395.033275676
scalar Network800.node210 	discovery_resolution_rate 	33.333333333333
scalar Network800.node320 	rate_of_requesters 	1
scalar Network800.node320 	number_of_resources 	44000
scalar Network800.node320 	time_period 	3
scalar Network800.node320 	number_of_messages 	2
scalar Network800.node320 	discovery_latency 	6204
scalar Network800.node320 	number_of_desired_resources 	20
scalar Network800.node320 	query_homogenity_rate 	33.333333333333
scalar Network800.node320 	qrecord_time 	13409.865645191
scalar Network800.node320 	discovery_resolution_rate 	0
scalar Network800.node790 	rate_of_requesters 	1
scalar Network800.node790 	number_of_resources 	44000
scalar Network800.node790 	time_period 	2
scalar Network800.node790 	number_of_messages 	2
scalar Network800.node790 	discovery_latency 	6192
scalar Network800.node790 	number_of_desired_resources 	20
scalar Network800.node790 	query_homogenity_rate 	33.333333333333
scalar Network800.node790 	qrecord_time 	13443.547309951
scalar Network800.node790 	discovery_resolution_rate 	0
scalar Network800.node420 	rate_of_requesters 	1
scalar Network800.node420 	number_of_resources 	44000
scalar Network800.node420 	time_period 	2
scalar Network800.node420 	number_of_messages 	2
scalar Network800.node420 	discovery_latency 	6192
scalar Network800.node420 	number_of_desired_resources 	20
scalar Network800.node420 	query_homogenity_rate 	33.333333333333
scalar Network800.node420 	qrecord_time 	13456.099968282
scalar Network800.node420 	discovery_resolution_rate 	0
scalar Network800.node60 	rate_of_requesters 	1
scalar Network800.node60 	number_of_resources 	44000
scalar Network800.node60 	time_period 	2
scalar Network800.node60 	number_of_messages 	2
scalar Network800.node60 	discovery_latency 	5964
scalar Network800.node60 	number_of_desired_resources 	20
scalar Network800.node60 	query_homogenity_rate 	33.333333333333
scalar Network800.node60 	qrecord_time 	13481.507445073
scalar Network800.node60 	discovery_resolution_rate 	0
scalar Network800.node290 	rate_of_requesters 	1
scalar Network800.node290 	number_of_resources 	44000
scalar Network800.node290 	time_period 	2
scalar Network800.node290 	number_of_messages 	2
scalar Network800.node290 	discovery_latency 	6132
scalar Network800.node290 	number_of_desired_resources 	20
scalar Network800.node290 	query_homogenity_rate 	33.333333333333
scalar Network800.node290 	qrecord_time 	13483.719812019
scalar Network800.node290 	discovery_resolution_rate 	0
scalar Network800.node10 	rate_of_requesters 	1
scalar Network800.node10 	number_of_resources 	44000
scalar Network800.node10 	time_period 	3
scalar Network800.node10 	number_of_messages 	2
scalar Network800.node10 	discovery_latency 	5892
scalar Network800.node10 	number_of_desired_resources 	20
scalar Network800.node10 	query_homogenity_rate 	33.333333333333
scalar Network800.node10 	qrecord_time 	13515.341430447
scalar Network800.node10 	discovery_resolution_rate 	0
scalar Network800.node540 	rate_of_requesters 	1
scalar Network800.node540 	number_of_resources 	44000
scalar Network800.node540 	time_period 	4
scalar Network800.node540 	number_of_messages 	62
scalar Network800.node540 	discovery_latency 	4308
scalar Network800.node540 	number_of_desired_resources 	20
scalar Network800.node540 	query_homogenity_rate 	33.333333333333
scalar Network800.node540 	qrecord_time 	13536.565543212
scalar Network800.node540 	discovery_resolution_rate 	33.333333333333
scalar Network800.node80 	rate_of_requesters 	1
scalar Network800.node80 	number_of_resources 	44000
scalar Network800.node80 	time_period 	5
scalar Network800.node80 	number_of_messages 	2
scalar Network800.node80 	discovery_latency 	5976
scalar Network800.node80 	number_of_desired_resources 	20
scalar Network800.node80 	query_homogenity_rate 	33.333333333333
scalar Network800.node80 	qrecord_time 	13586.269865269
scalar Network800.node80 	discovery_resolution_rate 	0
scalar Network800.node580 	rate_of_requesters 	1
scalar Network800.node580 	number_of_resources 	44000
scalar Network800.node580 	time_period 	3
scalar Network800.node580 	number_of_messages 	2
scalar Network800.node580 	discovery_latency 	6108
scalar Network800.node580 	number_of_desired_resources 	20
scalar Network800.node580 	query_homogenity_rate 	33.333333333333
scalar Network800.node580 	qrecord_time 	13594.293716903
scalar Network800.node580 	discovery_resolution_rate 	0
scalar Network800.node110 	rate_of_requesters 	1
scalar Network800.node110 	number_of_resources 	44000
scalar Network800.node110 	time_period 	2
scalar Network800.node110 	number_of_messages 	2
scalar Network800.node110 	discovery_latency 	6060
scalar Network800.node110 	number_of_desired_resources 	20
scalar Network800.node110 	query_homogenity_rate 	33.333333333333
scalar Network800.node110 	qrecord_time 	13638.747378381
scalar Network800.node110 	discovery_resolution_rate 	0
scalar Network800.node10 	rate_of_requesters 	1
scalar Network800.node10 	number_of_resources 	44000
scalar Network800.node10 	time_period 	4
scalar Network800.node10 	number_of_messages 	2
scalar Network800.node10 	discovery_latency 	6048
scalar Network800.node10 	number_of_desired_resources 	20
scalar Network800.node10 	query_homogenity_rate 	33.333333333333
scalar Network800.node10 	qrecord_time 	13676.864064996
scalar Network800.node10 	discovery_resolution_rate 	0
scalar Network800.node640 	rate_of_requesters 	1
scalar Network800.node640 	number_of_resources 	44000
scalar Network800.node640 	time_period 	4
scalar Network800.node640 	number_of_messages 	2
scalar Network800.node640 	discovery_latency 	6108
scalar Network800.node640 	number_of_desired_resources 	20
scalar Network800.node640 	query_homogenity_rate 	33.333333333333
scalar Network800.node640 	qrecord_time 	13703.439384698
scalar Network800.node640 	discovery_resolution_rate 	0
scalar Network800.node170 	rate_of_requesters 	1
scalar Network800.node170 	number_of_resources 	44000
scalar Network800.node170 	time_period 	4
scalar Network800.node170 	number_of_messages 	2
scalar Network800.node170 	discovery_latency 	5808
scalar Network800.node170 	number_of_desired_resources 	20
scalar Network800.node170 	query_homogenity_rate 	33.333333333333
scalar Network800.node170 	qrecord_time 	13796.188042322
scalar Network800.node170 	discovery_resolution_rate 	0
scalar Network800.node720 	rate_of_requesters 	1
scalar Network800.node720 	number_of_resources 	44000
scalar Network800.node720 	time_period 	2
scalar Network800.node720 	number_of_messages 	80
scalar Network800.node720 	discovery_latency 	4332
scalar Network800.node720 	number_of_desired_resources 	20
scalar Network800.node720 	query_homogenity_rate 	33.333333333333
scalar Network800.node720 	qrecord_time 	13870.128795873
scalar Network800.node720 	discovery_resolution_rate 	33.333333333333
scalar Network800.node180 	rate_of_requesters 	1
scalar Network800.node180 	number_of_resources 	44000
scalar Network800.node180 	time_period 	4
scalar Network800.node180 	number_of_messages 	237
scalar Network800.node180 	discovery_latency 	4668
scalar Network800.node180 	number_of_desired_resources 	20
scalar Network800.node180 	query_homogenity_rate 	33.333333333333
scalar Network800.node180 	qrecord_time 	13933.687013723
scalar Network800.node180 	discovery_resolution_rate 	33.333333333333
scalar Network800.node190 	rate_of_requesters 	1
scalar Network800.node190 	number_of_resources 	44000
scalar Network800.node190 	time_period 	3
scalar Network800.node190 	number_of_messages 	2
scalar Network800.node190 	discovery_latency 	5976
scalar Network800.node190 	number_of_desired_resources 	20
scalar Network800.node190 	query_homogenity_rate 	33.333333333333
scalar Network800.node190 	qrecord_time 	14019.025022511
scalar Network800.node190 	discovery_resolution_rate 	0
scalar Network800.node170 	rate_of_requesters 	1
scalar Network800.node170 	number_of_resources 	44000
scalar Network800.node170 	time_period 	3
scalar Network800.node170 	number_of_messages 	2
scalar Network800.node170 	discovery_latency 	6156
scalar Network800.node170 	number_of_desired_resources 	20
scalar Network800.node170 	query_homogenity_rate 	33.333333333333
scalar Network800.node170 	qrecord_time 	14041.802478452
scalar Network800.node170 	discovery_resolution_rate 	0
scalar Network800.node430 	rate_of_requesters 	1
scalar Network800.node430 	number_of_resources 	44000
scalar Network800.node430 	time_period 	3
scalar Network800.node430 	number_of_messages 	2
scalar Network800.node430 	discovery_latency 	6000
scalar Network800.node430 	number_of_desired_resources 	20
scalar Network800.node430 	query_homogenity_rate 	33.333333333333
scalar Network800.node430 	qrecord_time 	14063.456524982
scalar Network800.node430 	discovery_resolution_rate 	0
scalar Network800.node290 	rate_of_requesters 	1
scalar Network800.node290 	number_of_resources 	44000
scalar Network800.node290 	time_period 	4
scalar Network800.node290 	number_of_messages 	117
scalar Network800.node290 	discovery_latency 	4320
scalar Network800.node290 	number_of_desired_resources 	20
scalar Network800.node290 	query_homogenity_rate 	33.333333333333
scalar Network800.node290 	qrecord_time 	14186.54666664
scalar Network800.node290 	discovery_resolution_rate 	33.333333333333
scalar Network800.node360 	rate_of_requesters 	1
scalar Network800.node360 	number_of_resources 	44000
scalar Network800.node360 	time_period 	4
scalar Network800.node360 	number_of_messages 	73
scalar Network800.node360 	discovery_latency 	4308
scalar Network800.node360 	number_of_desired_resources 	20
scalar Network800.node360 	query_homogenity_rate 	33.333333333333
scalar Network800.node360 	qrecord_time 	14255.503811238
scalar Network800.node360 	discovery_resolution_rate 	33.333333333333
scalar Network800.node310 	rate_of_requesters 	1
scalar Network800.node310 	number_of_resources 	44000
scalar Network800.node310 	time_period 	3
scalar Network800.node310 	number_of_messages 	2
scalar Network800.node310 	discovery_latency 	5904
scalar Network800.node310 	number_of_desired_resources 	20
scalar Network800.node310 	query_homogenity_rate 	33.333333333333
scalar Network800.node310 	qrecord_time 	14275.950170317
scalar Network800.node310 	discovery_resolution_rate 	0
scalar Network800.node240 	rate_of_requesters 	1
scalar Network800.node240 	number_of_resources 	44000
scalar Network800.node240 	time_period 	3
scalar Network800.node240 	number_of_messages 	2
scalar Network800.node240 	discovery_latency 	5940
scalar Network800.node240 	number_of_desired_resources 	20
scalar Network800.node240 	query_homogenity_rate 	33.333333333333
scalar Network800.node240 	qrecord_time 	14313.90490213
scalar Network800.node240 	discovery_resolution_rate 	0
scalar Network800.node480 	rate_of_requesters 	1
scalar Network800.node480 	number_of_resources 	44000
scalar Network800.node480 	time_period 	2
scalar Network800.node480 	number_of_messages 	100
scalar Network800.node480 	discovery_latency 	4308
scalar Network800.node480 	number_of_desired_resources 	20
scalar Network800.node480 	query_homogenity_rate 	33.333333333333
scalar Network800.node480 	qrecord_time 	14319.170673202
scalar Network800.node480 	discovery_resolution_rate 	33.333333333333
scalar Network800.node350 	rate_of_requesters 	1
scalar Network800.node350 	number_of_resources 	44000
[...]
scalar Network800.node440 	query_homogenity_rate 	33.333333333333
scalar Network800.node440 	qrecord_time 	51043.659943912
scalar Network800.node440 	discovery_resolution_rate 	100
scalar Network800.node160 	rate_of_requesters 	1
scalar Network800.node160 	number_of_resources 	44000
scalar Network800.node160 	time_period 	9
scalar Network800.node160 	number_of_messages 	21
scalar Network800.node160 	discovery_latency 	4248
scalar Network800.node160 	number_of_desired_resources 	20
scalar Network800.node160 	query_homogenity_rate 	33.333333333333
scalar Network800.node160 	qrecord_time 	51177.890846799
scalar Network800.node160 	discovery_resolution_rate 	66.666666666667
scalar Network800.node380 	rate_of_requesters 	1
scalar Network800.node380 	number_of_resources 	44000
scalar Network800.node380 	time_period 	7
scalar Network800.node380 	number_of_messages 	21
scalar Network800.node380 	discovery_latency 	4248
scalar Network800.node380 	number_of_desired_resources 	20
scalar Network800.node380 	query_homogenity_rate 	33.333333333333
scalar Network800.node380 	qrecord_time 	51335.203960471
scalar Network800.node380 	discovery_resolution_rate 	66.666666666667
scalar Network800.node480 	rate_of_requesters 	1
scalar Network800.node480 	number_of_resources 	44000
scalar Network800.node480 	time_period 	10
scalar Network800.node480 	number_of_messages 	11
scalar Network800.node480 	discovery_latency 	4212
scalar Network800.node480 	number_of_desired_resources 	20
scalar Network800.node480 	query_homogenity_rate 	33.333333333333
scalar Network800.node480 	qrecord_time 	51532.704535263
scalar Network800.node480 	discovery_resolution_rate 	66.666666666667
scalar Network800.node440 	rate_of_requesters 	1
scalar Network800.node440 	number_of_resources 	44000
scalar Network800.node440 	time_period 	9
scalar Network800.node440 	number_of_messages 	26
scalar Network800.node440 	discovery_latency 	4260
scalar Network800.node440 	number_of_desired_resources 	20
scalar Network800.node440 	query_homogenity_rate 	33.333333333333
scalar Network800.node440 	qrecord_time 	51987.119685851
scalar Network800.node440 	discovery_resolution_rate 	66.666666666667
scalar Network800.node590 	rate_of_requesters 	1
scalar Network800.node590 	number_of_resources 	44000
scalar Network800.node590 	time_period 	10
scalar Network800.node590 	number_of_messages 	187
scalar Network800.node590 	discovery_latency 	4416
scalar Network800.node590 	number_of_desired_resources 	20
scalar Network800.node590 	query_homogenity_rate 	33.333333333333
scalar Network800.node590 	qrecord_time 	52167.902221135
scalar Network800.node590 	discovery_resolution_rate 	50
scalar Network800.node510 	rate_of_requesters 	1
scalar Network800.node510 	number_of_resources 	44000
scalar Network800.node510 	time_period 	10
scalar Network800.node510 	number_of_messages 	7
scalar Network800.node510 	discovery_latency 	4248
scalar Network800.node510 	number_of_desired_resources 	20
scalar Network800.node510 	query_homogenity_rate 	33.333333333333
scalar Network800.node510 	qrecord_time 	52324.851568828
scalar Network800.node510 	discovery_resolution_rate 	33.333333333333
scalar Network800.node90 	rate_of_requesters 	1
scalar Network800.node90 	number_of_resources 	44000
scalar Network800.node90 	time_period 	7
scalar Network800.node90 	number_of_messages 	20
scalar Network800.node90 	discovery_latency 	4128
scalar Network800.node90 	number_of_desired_resources 	20
scalar Network800.node90 	query_homogenity_rate 	33.333333333333
scalar Network800.node90 	qrecord_time 	52750.182208861
scalar Network800.node90 	discovery_resolution_rate 	66.666666666667
scalar Network800.node450 	rate_of_requesters 	1
scalar Network800.node450 	number_of_resources 	44000
scalar Network800.node450 	time_period 	5
scalar Network800.node450 	number_of_messages 	26
scalar Network800.node450 	discovery_latency 	312
scalar Network800.node450 	number_of_desired_resources 	20
scalar Network800.node450 	query_homogenity_rate 	33.333333333333
scalar Network800.node450 	qrecord_time 	53022.954006553
scalar Network800.node450 	discovery_resolution_rate 	100
scalar Network800.node450 	rate_of_requesters 	1
scalar Network800.node450 	number_of_resources 	44000
scalar Network800.node450 	time_period 	4
scalar Network800.node450 	number_of_messages 	8
scalar Network800.node450 	discovery_latency 	4308
scalar Network800.node450 	number_of_desired_resources 	20
scalar Network800.node450 	query_homogenity_rate 	33.333333333333
scalar Network800.node450 	qrecord_time 	53213.616492012
scalar Network800.node450 	discovery_resolution_rate 	33.333333333333
scalar Network800.node90 	rate_of_requesters 	1
scalar Network800.node90 	number_of_resources 	44000
scalar Network800.node90 	time_period 	8
scalar Network800.node90 	number_of_messages 	10
scalar Network800.node90 	discovery_latency 	4368
scalar Network800.node90 	number_of_desired_resources 	20
scalar Network800.node90 	query_homogenity_rate 	33.333333333333
scalar Network800.node90 	qrecord_time 	53795.453250231
scalar Network800.node90 	discovery_resolution_rate 	33.333333333333
scalar Network800.node380 	rate_of_requesters 	1
scalar Network800.node380 	number_of_resources 	44000
scalar Network800.node380 	time_period 	8
scalar Network800.node380 	number_of_messages 	81
scalar Network800.node380 	discovery_latency 	4212
scalar Network800.node380 	number_of_desired_resources 	20
scalar Network800.node380 	query_homogenity_rate 	33.333333333333
scalar Network800.node380 	qrecord_time 	53895.7356932
scalar Network800.node380 	discovery_resolution_rate 	66.666666666667
scalar Network800.node410 	rate_of_requesters 	1
scalar Network800.node410 	number_of_resources 	44000
scalar Network800.node410 	time_period 	10
scalar Network800.node410 	number_of_messages 	41
scalar Network800.node410 	discovery_latency 	4224
scalar Network800.node410 	number_of_desired_resources 	20
scalar Network800.node410 	query_homogenity_rate 	33.333333333333
scalar Network800.node410 	qrecord_time 	53915.518653682
scalar Network800.node410 	discovery_resolution_rate 	66.666666666667
scalar Network800.node20 	rate_of_requesters 	1
scalar Network800.node20 	number_of_resources 	44000
scalar Network800.node20 	time_period 	7
scalar Network800.node20 	number_of_messages 	9
scalar Network800.node20 	discovery_latency 	4344
scalar Network800.node20 	number_of_desired_resources 	20
scalar Network800.node20 	query_homogenity_rate 	33.333333333333
scalar Network800.node20 	qrecord_time 	54258.886782745
scalar Network800.node20 	discovery_resolution_rate 	33.333333333333
scalar Network800.node700 	rate_of_requesters 	1
scalar Network800.node700 	number_of_resources 	44000
scalar Network800.node700 	time_period 	9
scalar Network800.node700 	number_of_messages 	8
scalar Network800.node700 	discovery_latency 	4440
scalar Network800.node700 	number_of_desired_resources 	20
scalar Network800.node700 	query_homogenity_rate 	33.333333333333
scalar Network800.node700 	qrecord_time 	54384.001541305
scalar Network800.node700 	discovery_resolution_rate 	33.333333333333
scalar Network800.node160 	rate_of_requesters 	1
scalar Network800.node160 	number_of_resources 	44000
scalar Network800.node160 	time_period 	10
scalar Network800.node160 	number_of_messages 	42
scalar Network800.node160 	discovery_latency 	504
scalar Network800.node160 	number_of_desired_resources 	20
scalar Network800.node160 	query_homogenity_rate 	33.333333333333
scalar Network800.node160 	qrecord_time 	54466.827435882
scalar Network800.node160 	discovery_resolution_rate 	100
scalar Network800.node550 	rate_of_requesters 	1
scalar Network800.node550 	number_of_resources 	44000
scalar Network800.node550 	time_period 	9
scalar Network800.node550 	number_of_messages 	9
scalar Network800.node550 	discovery_latency 	4308
scalar Network800.node550 	number_of_desired_resources 	20
scalar Network800.node550 	query_homogenity_rate 	33.333333333333
scalar Network800.node550 	qrecord_time 	54583.706359948
scalar Network800.node550 	discovery_resolution_rate 	33.333333333333
scalar Network800.node750 	rate_of_requesters 	1
scalar Network800.node750 	number_of_resources 	44000
scalar Network800.node750 	time_period 	9
scalar Network800.node750 	number_of_messages 	12
scalar Network800.node750 	discovery_latency 	4296
scalar Network800.node750 	number_of_desired_resources 	20
scalar Network800.node750 	query_homogenity_rate 	33.333333333333
scalar Network800.node750 	qrecord_time 	55294.485562864
scalar Network800.node750 	discovery_resolution_rate 	33.333333333333
scalar Network800.node210 	rate_of_requesters 	1
scalar Network800.node210 	number_of_resources 	44000
scalar Network800.node210 	time_period 	10
scalar Network800.node210 	number_of_messages 	11
scalar Network800.node210 	discovery_latency 	4248
scalar Network800.node210 	number_of_desired_resources 	20
scalar Network800.node210 	query_homogenity_rate 	33.333333333333
scalar Network800.node210 	qrecord_time 	55570.524881762
scalar Network800.node210 	discovery_resolution_rate 	33.333333333333
scalar Network800.node380 	rate_of_requesters 	1
scalar Network800.node380 	number_of_resources 	44000
scalar Network800.node380 	time_period 	9
scalar Network800.node380 	number_of_messages 	326
scalar Network800.node380 	discovery_latency 	4248
scalar Network800.node380 	number_of_desired_resources 	20
scalar Network800.node380 	query_homogenity_rate 	33.333333333333
scalar Network800.node380 	qrecord_time 	55710.812859476
scalar Network800.node380 	discovery_resolution_rate 	83.333333333333
scalar Network800.node700 	rate_of_requesters 	1
scalar Network800.node700 	number_of_resources 	44000
scalar Network800.node700 	time_period 	10
scalar Network800.node700 	number_of_messages 	20
scalar Network800.node700 	discovery_latency 	156
scalar Network800.node700 	number_of_desired_resources 	20
scalar Network800.node700 	query_homogenity_rate 	33.333333333333
scalar Network800.node700 	qrecord_time 	56075.007576035
scalar Network800.node700 	discovery_resolution_rate 	100
scalar Network800.node720 	rate_of_requesters 	1
scalar Network800.node720 	number_of_resources 	44000
scalar Network800.node720 	time_period 	8
scalar Network800.node720 	number_of_messages 	17
scalar Network800.node720 	discovery_latency 	95.999999999997
scalar Network800.node720 	number_of_desired_resources 	20
scalar Network800.node720 	query_homogenity_rate 	33.333333333333
scalar Network800.node720 	qrecord_time 	57308.909721948
scalar Network800.node720 	discovery_resolution_rate 	100
scalar Network800.node90 	rate_of_requesters 	1
scalar Network800.node90 	number_of_resources 	44000
scalar Network800.node90 	time_period 	9
scalar Network800.node90 	number_of_messages 	11
scalar Network800.node90 	discovery_latency 	4332
scalar Network800.node90 	number_of_desired_resources 	20
scalar Network800.node90 	query_homogenity_rate 	33.333333333333
scalar Network800.node90 	qrecord_time 	57574.96528136
scalar Network800.node90 	discovery_resolution_rate 	66.666666666667
scalar Network800.node450 	rate_of_requesters 	1
scalar Network800.node450 	number_of_resources 	44000
scalar Network800.node450 	time_period 	6
scalar Network800.node450 	number_of_messages 	24
scalar Network800.node450 	discovery_latency 	192
scalar Network800.node450 	number_of_desired_resources 	20
scalar Network800.node450 	query_homogenity_rate 	33.333333333333
scalar Network800.node450 	qrecord_time 	59872.410212767
scalar Network800.node450 	discovery_resolution_rate 	100
scalar Network800.node380 	rate_of_requesters 	1
scalar Network800.node380 	number_of_resources 	44000
scalar Network800.node380 	time_period 	10
scalar Network800.node380 	number_of_messages 	21
scalar Network800.node380 	discovery_latency 	4188
scalar Network800.node380 	number_of_desired_resources 	20
scalar Network800.node380 	query_homogenity_rate 	33.333333333333
scalar Network800.node380 	qrecord_time 	60080.513671387
scalar Network800.node380 	discovery_resolution_rate 	66.666666666667
scalar Network800.node720 	rate_of_requesters 	1
scalar Network800.node720 	number_of_resources 	44000
scalar Network800.node720 	time_period 	9
scalar Network800.node720 	number_of_messages 	17
scalar Network800.node720 	discovery_latency 	95.999999999997
scalar Network800.node720 	number_of_desired_resources 	20
scalar Network800.node720 	query_homogenity_rate 	33.333333333333
scalar Network800.node720 	qrecord_time 	60811.296503116
scalar Network800.node720 	discovery_resolution_rate 	100
scalar Network800.node190 	rate_of_requesters 	1
scalar Network800.node190 	number_of_resources 	44000
scalar Network800.node190 	time_period 	10
scalar Network800.node190 	number_of_messages 	190
scalar Network800.node190 	discovery_latency 	4248
scalar Network800.node190 	number_of_desired_resources 	20
scalar Network800.node190 	query_homogenity_rate 	33.333333333333
scalar Network800.node190 	qrecord_time 	61817.414166933
scalar Network800.node190 	discovery_resolution_rate 	83.333333333333
scalar Network800.node120 	rate_of_requesters 	1
scalar Network800.node120 	number_of_resources 	44000
scalar Network800.node120 	time_period 	8
scalar Network800.node120 	number_of_messages 	17
scalar Network800.node120 	discovery_latency 	4248
scalar Network800.node120 	number_of_desired_resources 	20
scalar Network800.node120 	query_homogenity_rate 	33.333333333333
scalar Network800.node120 	qrecord_time 	62339.469700187
scalar Network800.node120 	discovery_resolution_rate 	66.666666666667
scalar Network800.node20 	rate_of_requesters 	1
scalar Network800.node20 	number_of_resources 	44000
scalar Network800.node20 	time_period 	8
scalar Network800.node20 	number_of_messages 	14
scalar Network800.node20 	discovery_latency 	4260
scalar Network800.node20 	number_of_desired_resources 	20
scalar Network800.node20 	query_homogenity_rate 	33.333333333333
scalar Network800.node20 	qrecord_time 	62478.654626405
scalar Network800.node20 	discovery_resolution_rate 	66.666666666667
scalar Network800.node750 	rate_of_requesters 	1
scalar Network800.node750 	number_of_resources 	44000
scalar Network800.node750 	time_period 	10
scalar Network800.node750 	number_of_messages 	24
scalar Network800.node750 	discovery_latency 	180
scalar Network800.node750 	number_of_desired_resources 	20
scalar Network800.node750 	query_homogenity_rate 	33.333333333333
scalar Network800.node750 	qrecord_time 	63976.861714399
scalar Network800.node750 	discovery_resolution_rate 	100
scalar Network800.node20 	rate_of_requesters 	1
scalar Network800.node20 	number_of_resources 	44000
scalar Network800.node20 	time_period 	9
scalar Network800.node20 	number_of_messages 	29
scalar Network800.node20 	discovery_latency 	276
scalar Network800.node20 	number_of_desired_resources 	20
scalar Network800.node20 	query_homogenity_rate 	33.333333333333
scalar Network800.node20 	qrecord_time 	65243.977530178
scalar Network800.node20 	discovery_resolution_rate 	100
scalar Network800.node90 	rate_of_requesters 	1
scalar Network800.node90 	number_of_resources 	44000
scalar Network800.node90 	time_period 	10
scalar Network800.node90 	number_of_messages 	11
scalar Network800.node90 	discovery_latency 	4164
scalar Network800.node90 	number_of_desired_resources 	20
scalar Network800.node90 	query_homogenity_rate 	33.333333333333
scalar Network800.node90 	qrecord_time 	65450.260359537
scalar Network800.node90 	discovery_resolution_rate 	66.666666666667
scalar Network800.node120 	rate_of_requesters 	1
scalar Network800.node120 	number_of_resources 	44000
scalar Network800.node120 	time_period 	9
scalar Network800.node120 	number_of_messages 	194
scalar Network800.node120 	discovery_latency 	4344
scalar Network800.node120 	number_of_desired_resources 	20
scalar Network800.node120 	query_homogenity_rate 	33.333333333333
scalar Network800.node120 	qrecord_time 	66600.279279683
scalar Network800.node120 	discovery_resolution_rate 	83.333333333333
scalar Network800.node720 	rate_of_requesters 	1
scalar Network800.node720 	number_of_resources 	44000
scalar Network800.node720 	time_period 	10
scalar Network800.node720 	number_of_messages 	12
scalar Network800.node720 	discovery_latency 	4200
scalar Network800.node720 	number_of_desired_resources 	20
scalar Network800.node720 	query_homogenity_rate 	33.333333333333
scalar Network800.node720 	qrecord_time 	66720.081830139
scalar Network800.node720 	discovery_resolution_rate 	66.666666666667
scalar Network800.node550 	rate_of_requesters 	1
scalar Network800.node550 	number_of_resources 	44000
scalar Network800.node550 	time_period 	10
scalar Network800.node550 	number_of_messages 	27
scalar Network800.node550 	discovery_latency 	227.99999999999
scalar Network800.node550 	number_of_desired_resources 	20
scalar Network800.node550 	query_homogenity_rate 	33.333333333333
scalar Network800.node550 	qrecord_time 	67031.410548179
scalar Network800.node550 	discovery_resolution_rate 	100
scalar Network800.node120 	rate_of_requesters 	1
scalar Network800.node120 	number_of_resources 	44000
scalar Network800.node120 	time_period 	10
scalar Network800.node120 	number_of_messages 	26
scalar Network800.node120 	discovery_latency 	4344
scalar Network800.node120 	number_of_desired_resources 	20
scalar Network800.node120 	query_homogenity_rate 	33.333333333333
scalar Network800.node120 	qrecord_time 	67203.831246102
scalar Network800.node120 	discovery_resolution_rate 	66.666666666667
scalar Network800.node450 	rate_of_requesters 	1
scalar Network800.node450 	number_of_resources 	44000
scalar Network800.node450 	time_period 	8
scalar Network800.node450 	number_of_messages 	24
scalar Network800.node450 	discovery_latency 	192.00000000001
scalar Network800.node450 	number_of_desired_resources 	20
scalar Network800.node450 	query_homogenity_rate 	33.333333333333
scalar Network800.node450 	qrecord_time 	68181.024649166
scalar Network800.node450 	discovery_resolution_rate 	100
scalar Network800.node450 	rate_of_requesters 	1
scalar Network800.node450 	number_of_resources 	44000
scalar Network800.node450 	time_period 	7
scalar Network800.node450 	number_of_messages 	13
scalar Network800.node450 	discovery_latency 	4236
scalar Network800.node450 	number_of_desired_resources 	20
scalar Network800.node450 	query_homogenity_rate 	33.333333333333
scalar Network800.node450 	qrecord_time 	70205.087692532
scalar Network800.node450 	discovery_resolution_rate 	66.666666666667
scalar Network800.node20 	rate_of_requesters 	1
scalar Network800.node20 	number_of_resources 	44000
scalar Network800.node20 	time_period 	10
scalar Network800.node20 	number_of_messages 	14
scalar Network800.node20 	discovery_latency 	4296
scalar Network800.node20 	number_of_desired_resources 	20
scalar Network800.node20 	query_homogenity_rate 	33.333333333333
scalar Network800.node20 	qrecord_time 	72943.110487878
scalar Network800.node20 	discovery_resolution_rate 	66.666666666667
scalar Network800.node450 	rate_of_requesters 	1
scalar Network800.node450 	number_of_resources 	44000
scalar Network800.node450 	time_period 	9
scalar Network800.node450 	number_of_messages 	26
scalar Network800.node450 	discovery_latency 	240.00000000001
scalar Network800.node450 	number_of_desired_resources 	20
scalar Network800.node450 	query_homogenity_rate 	33.333333333333
scalar Network800.node450 	qrecord_time 	73983.081180192
scalar Network800.node450 	discovery_resolution_rate 	100
scalar Network800.node450 	rate_of_requesters 	1
scalar Network800.node450 	number_of_resources 	44000
scalar Network800.node450 	time_period 	10
scalar Network800.node450 	number_of_messages 	190
scalar Network800.node450 	discovery_latency 	4152
scalar Network800.node450 	number_of_desired_resources 	20
scalar Network800.node450 	query_homogenity_rate 	33.333333333333
scalar Network800.node450 	qrecord_time 	79232.170493452
scalar Network800.node450 	discovery_resolution_rate 	83.333333333333
