version 2
run net900-1-20150624-08:01:03-1166
attr as 1
attr configname net900
attr datetime 20150624-08:01:03
attr dnor 20
attr experiment net900
attr inifile omnetpp.ini
attr iterationvars "$rhdrq=3, $dnor=20, $as=1"
attr iterationvars2 "$rhdrq=3, $dnor=20, $as=1, $repetition=1"
attr measurement "$rhdrq=3, $dnor=20, $as=1"
attr network Network900
attr processid 1166
attr repetition 1
attr replication #1
attr resultdir results
attr rhdrq 3
attr runnumber 1
attr seedset 1

scalar . 	as 	1
scalar . 	dnor 	20
scalar . 	rhdrq 	3
scalar Network900.node620 	rate_of_requesters 	1
scalar Network900.node620 	number_of_resources 	49500
scalar Network900.node620 	time_period 	1
scalar Network900.node620 	number_of_messages 	22
scalar Network900.node620 	discovery_latency 	4716
scalar Network900.node620 	number_of_desired_resources 	20
scalar Network900.node620 	query_homogenity_rate 	33.333333333333
scalar Network900.node620 	qrecord_time 	9406
scalar Network900.node620 	discovery_resolution_rate 	66.666666666667
scalar Network900.node320 	rate_of_requesters 	1
scalar Network900.node320 	number_of_resources 	49500
scalar Network900.node320 	time_period 	1
scalar Network900.node320 	number_of_messages 	17
scalar Network900.node320 	discovery_latency 	4752
scalar Network900.node320 	number_of_desired_resources 	20
scalar Network900.node320 	query_homogenity_rate 	33.333333333333
scalar Network900.node320 	qrecord_time 	9466
scalar Network900.node320 	discovery_resolution_rate 	66.666666666667
scalar Network900.node20 	rate_of_requesters 	1
scalar Network900.node20 	number_of_resources 	49500
scalar Network900.node20 	time_period 	1
scalar Network900.node20 	number_of_messages 	24
scalar Network900.node20 	discovery_latency 	4788
scalar Network900.node20 	number_of_desired_resources 	20
scalar Network900.node20 	query_homogenity_rate 	33.333333333333
scalar Network900.node20 	qrecord_time 	9478
scalar Network900.node20 	discovery_resolution_rate 	66.666666666667
scalar Network900.node470 	rate_of_requesters 	1
scalar Network900.node470 	number_of_resources 	49500
scalar Network900.node470 	time_period 	1
scalar Network900.node470 	number_of_messages 	24
scalar Network900.node470 	discovery_latency 	4860
scalar Network900.node470 	number_of_desired_resources 	20
scalar Network900.node470 	query_homogenity_rate 	33.333333333333
scalar Network900.node470 	qrecord_time 	9508
scalar Network900.node470 	discovery_resolution_rate 	66.666666666667
scalar Network900.node420 	rate_of_requesters 	1
scalar Network900.node420 	number_of_resources 	49500
scalar Network900.node420 	time_period 	1
scalar Network900.node420 	number_of_messages 	11
scalar Network900.node420 	discovery_latency 	4764
scalar Network900.node420 	number_of_desired_resources 	20
scalar Network900.node420 	query_homogenity_rate 	33.333333333333
scalar Network900.node420 	qrecord_time 	9514
scalar Network900.node420 	discovery_resolution_rate 	66.666666666667
scalar Network900.node480 	rate_of_requesters 	1
scalar Network900.node480 	number_of_resources 	49500
scalar Network900.node480 	time_period 	1
scalar Network900.node480 	number_of_messages 	15
scalar Network900.node480 	discovery_latency 	4812
scalar Network900.node480 	number_of_desired_resources 	20
scalar Network900.node480 	query_homogenity_rate 	33.333333333333
scalar Network900.node480 	qrecord_time 	9526
scalar Network900.node480 	discovery_resolution_rate 	66.666666666667
scalar Network900.node660 	rate_of_requesters 	1
scalar Network900.node660 	number_of_resources 	49500
scalar Network900.node660 	time_period 	1
scalar Network900.node660 	number_of_messages 	21
scalar Network900.node660 	discovery_latency 	4860
scalar Network900.node660 	number_of_desired_resources 	20
scalar Network900.node660 	query_homogenity_rate 	33.333333333333
scalar Network900.node660 	qrecord_time 	9592
scalar Network900.node660 	discovery_resolution_rate 	66.666666666667
scalar Network900.node830 	rate_of_requesters 	1
scalar Network900.node830 	number_of_resources 	49500
scalar Network900.node830 	time_period 	1
scalar Network900.node830 	number_of_messages 	18
scalar Network900.node830 	discovery_latency 	4932
scalar Network900.node830 	number_of_desired_resources 	20
scalar Network900.node830 	query_homogenity_rate 	33.333333333333
scalar Network900.node830 	qrecord_time 	9640
scalar Network900.node830 	discovery_resolution_rate 	66.666666666667
scalar Network900.node290 	rate_of_requesters 	1
scalar Network900.node290 	number_of_resources 	49500
scalar Network900.node290 	time_period 	1
scalar Network900.node290 	number_of_messages 	48
scalar Network900.node290 	discovery_latency 	4944
scalar Network900.node290 	number_of_desired_resources 	20
scalar Network900.node290 	query_homogenity_rate 	33.333333333333
scalar Network900.node290 	qrecord_time 	9658
scalar Network900.node290 	discovery_resolution_rate 	66.666666666667
scalar Network900.node840 	rate_of_requesters 	1
scalar Network900.node840 	number_of_resources 	49500
scalar Network900.node840 	time_period 	1
scalar Network900.node840 	number_of_messages 	18
scalar Network900.node840 	discovery_latency 	4992
scalar Network900.node840 	number_of_desired_resources 	20
scalar Network900.node840 	query_homogenity_rate 	33.333333333333
scalar Network900.node840 	qrecord_time 	9700
scalar Network900.node840 	discovery_resolution_rate 	66.666666666667
scalar Network900.node480 	rate_of_requesters 	1
scalar Network900.node480 	number_of_resources 	49500
scalar Network900.node480 	time_period 	2
scalar Network900.node480 	number_of_messages 	16
scalar Network900.node480 	discovery_latency 	5028
scalar Network900.node480 	number_of_desired_resources 	20
scalar Network900.node480 	query_homogenity_rate 	33.333333333333
scalar Network900.node480 	qrecord_time 	9742.544862677
scalar Network900.node480 	discovery_resolution_rate 	66.666666666667
scalar Network900.node60 	rate_of_requesters 	1
scalar Network900.node60 	number_of_resources 	49500
scalar Network900.node60 	time_period 	1
scalar Network900.node60 	number_of_messages 	38
scalar Network900.node60 	discovery_latency 	4956
scalar Network900.node60 	number_of_desired_resources 	20
scalar Network900.node60 	query_homogenity_rate 	33.333333333333
scalar Network900.node60 	qrecord_time 	9748
scalar Network900.node60 	discovery_resolution_rate 	66.666666666667
scalar Network900.node600 	rate_of_requesters 	1
scalar Network900.node600 	number_of_resources 	49500
scalar Network900.node600 	time_period 	1
scalar Network900.node600 	number_of_messages 	18
scalar Network900.node600 	discovery_latency 	5076
scalar Network900.node600 	number_of_desired_resources 	20
scalar Network900.node600 	query_homogenity_rate 	33.333333333333
scalar Network900.node600 	qrecord_time 	9748
scalar Network900.node600 	discovery_resolution_rate 	66.666666666667
scalar Network900.node710 	rate_of_requesters 	1
scalar Network900.node710 	number_of_resources 	49500
scalar Network900.node710 	time_period 	1
scalar Network900.node710 	number_of_messages 	17
scalar Network900.node710 	discovery_latency 	5844
scalar Network900.node710 	number_of_desired_resources 	20
scalar Network900.node710 	query_homogenity_rate 	33.333333333333
scalar Network900.node710 	qrecord_time 	10492
scalar Network900.node710 	discovery_resolution_rate 	33.333333333333
scalar Network900.node250 	rate_of_requesters 	1
scalar Network900.node250 	number_of_resources 	49500
scalar Network900.node250 	time_period 	1
scalar Network900.node250 	number_of_messages 	10
scalar Network900.node250 	discovery_latency 	5796
scalar Network900.node250 	number_of_desired_resources 	20
scalar Network900.node250 	query_homogenity_rate 	33.333333333333
scalar Network900.node250 	qrecord_time 	10510
scalar Network900.node250 	discovery_resolution_rate 	33.333333333333
scalar Network900.node640 	rate_of_requesters 	1
scalar Network900.node640 	number_of_resources 	49500
scalar Network900.node640 	time_period 	1
scalar Network900.node640 	number_of_messages 	207
scalar Network900.node640 	discovery_latency 	5832
scalar Network900.node640 	number_of_desired_resources 	20
scalar Network900.node640 	query_homogenity_rate 	33.333333333333
scalar Network900.node640 	qrecord_time 	10528
scalar Network900.node640 	discovery_resolution_rate 	50
scalar Network900.node790 	rate_of_requesters 	1
scalar Network900.node790 	number_of_resources 	49500
scalar Network900.node790 	time_period 	2
scalar Network900.node790 	number_of_messages 	6
scalar Network900.node790 	discovery_latency 	5820
scalar Network900.node790 	number_of_desired_resources 	20
scalar Network900.node790 	query_homogenity_rate 	33.333333333333
scalar Network900.node790 	qrecord_time 	10532.007191332
scalar Network900.node790 	discovery_resolution_rate 	33.333333333333
scalar Network900.node70 	rate_of_requesters 	1
scalar Network900.node70 	number_of_resources 	49500
scalar Network900.node70 	time_period 	1
scalar Network900.node70 	number_of_messages 	5
scalar Network900.node70 	discovery_latency 	5784
scalar Network900.node70 	number_of_desired_resources 	20
scalar Network900.node70 	query_homogenity_rate 	33.333333333333
scalar Network900.node70 	qrecord_time 	10540
scalar Network900.node70 	discovery_resolution_rate 	33.333333333333
scalar Network900.node880 	rate_of_requesters 	1
scalar Network900.node880 	number_of_resources 	49500
scalar Network900.node880 	time_period 	1
scalar Network900.node880 	number_of_messages 	6
scalar Network900.node880 	discovery_latency 	5844
scalar Network900.node880 	number_of_desired_resources 	20
scalar Network900.node880 	query_homogenity_rate 	33.333333333333
scalar Network900.node880 	qrecord_time 	10618
scalar Network900.node880 	discovery_resolution_rate 	33.333333333333
scalar Network900.node590 	rate_of_requesters 	1
scalar Network900.node590 	number_of_resources 	49500
scalar Network900.node590 	time_period 	1
scalar Network900.node590 	number_of_messages 	18
scalar Network900.node590 	discovery_latency 	5928
scalar Network900.node590 	number_of_desired_resources 	20
scalar Network900.node590 	query_homogenity_rate 	33.333333333333
scalar Network900.node590 	qrecord_time 	10618
scalar Network900.node590 	discovery_resolution_rate 	33.333333333333
scalar Network900.node300 	rate_of_requesters 	1
scalar Network900.node300 	number_of_resources 	49500
scalar Network900.node300 	time_period 	1
scalar Network900.node300 	number_of_messages 	8
scalar Network900.node300 	discovery_latency 	5904
scalar Network900.node300 	number_of_desired_resources 	20
scalar Network900.node300 	query_homogenity_rate 	33.333333333333
scalar Network900.node300 	qrecord_time 	10618
scalar Network900.node300 	discovery_resolution_rate 	33.333333333333
scalar Network900.node510 	rate_of_requesters 	1
scalar Network900.node510 	number_of_resources 	49500
scalar Network900.node510 	time_period 	1
scalar Network900.node510 	number_of_messages 	5
scalar Network900.node510 	discovery_latency 	5880
scalar Network900.node510 	number_of_desired_resources 	20
scalar Network900.node510 	query_homogenity_rate 	33.333333333333
scalar Network900.node510 	qrecord_time 	10636
scalar Network900.node510 	discovery_resolution_rate 	33.333333333333
scalar Network900.node520 	rate_of_requesters 	1
scalar Network900.node520 	number_of_resources 	49500
scalar Network900.node520 	time_period 	1
scalar Network900.node520 	number_of_messages 	7
scalar Network900.node520 	discovery_latency 	5904
scalar Network900.node520 	number_of_desired_resources 	20
scalar Network900.node520 	query_homogenity_rate 	33.333333333333
scalar Network900.node520 	qrecord_time 	10636
scalar Network900.node520 	discovery_resolution_rate 	33.333333333333
scalar Network900.node630 	rate_of_requesters 	1
scalar Network900.node630 	number_of_resources 	49500
scalar Network900.node630 	time_period 	1
scalar Network900.node630 	number_of_messages 	5
scalar Network900.node630 	discovery_latency 	5928
scalar Network900.node630 	number_of_desired_resources 	20
scalar Network900.node630 	query_homogenity_rate 	33.333333333333
scalar Network900.node630 	qrecord_time 	10642
scalar Network900.node630 	discovery_resolution_rate 	33.333333333333
scalar Network900.node0 	rate_of_requesters 	1
scalar Network900.node0 	number_of_resources 	49500
scalar Network900.node0 	time_period 	1
scalar Network900.node0 	number_of_messages 	10
scalar Network900.node0 	discovery_latency 	5952
scalar Network900.node0 	number_of_desired_resources 	20
scalar Network900.node0 	query_homogenity_rate 	33.333333333333
scalar Network900.node0 	qrecord_time 	10642
scalar Network900.node0 	discovery_resolution_rate 	33.333333333333
scalar Network900.node720 	rate_of_requesters 	1
scalar Network900.node720 	number_of_resources 	49500
scalar Network900.node720 	time_period 	1
scalar Network900.node720 	number_of_messages 	29
scalar Network900.node720 	discovery_latency 	5976
scalar Network900.node720 	number_of_desired_resources 	20
scalar Network900.node720 	query_homogenity_rate 	33.333333333333
scalar Network900.node720 	qrecord_time 	10642
scalar Network900.node720 	discovery_resolution_rate 	66.666666666667
scalar Network900.node190 	rate_of_requesters 	1
scalar Network900.node190 	number_of_resources 	49500
scalar Network900.node190 	time_period 	1
scalar Network900.node190 	number_of_messages 	7
scalar Network900.node190 	discovery_latency 	5796
scalar Network900.node190 	number_of_desired_resources 	20
scalar Network900.node190 	query_homogenity_rate 	33.333333333333
scalar Network900.node190 	qrecord_time 	10654
scalar Network900.node190 	discovery_resolution_rate 	33.333333333333
scalar Network900.node720 	rate_of_requesters 	1
scalar Network900.node720 	number_of_resources 	49500
scalar Network900.node720 	time_period 	2
scalar Network900.node720 	number_of_messages 	17
scalar Network900.node720 	discovery_latency 	5964
scalar Network900.node720 	number_of_desired_resources 	20
scalar Network900.node720 	query_homogenity_rate 	33.333333333333
scalar Network900.node720 	qrecord_time 	10663.776400241
scalar Network900.node720 	discovery_resolution_rate 	33.333333333333
scalar Network900.node860 	rate_of_requesters 	1
scalar Network900.node860 	number_of_resources 	49500
scalar Network900.node860 	time_period 	1
scalar Network900.node860 	number_of_messages 	5
scalar Network900.node860 	discovery_latency 	5916
scalar Network900.node860 	number_of_desired_resources 	20
scalar Network900.node860 	query_homogenity_rate 	33.333333333333
scalar Network900.node860 	qrecord_time 	10672
scalar Network900.node860 	discovery_resolution_rate 	33.333333333333
scalar Network900.node130 	rate_of_requesters 	1
scalar Network900.node130 	number_of_resources 	49500
scalar Network900.node130 	time_period 	1
scalar Network900.node130 	number_of_messages 	8
scalar Network900.node130 	discovery_latency 	5904
scalar Network900.node130 	number_of_desired_resources 	20
scalar Network900.node130 	query_homogenity_rate 	33.333333333333
scalar Network900.node130 	qrecord_time 	10672
scalar Network900.node130 	discovery_resolution_rate 	33.333333333333
scalar Network900.node430 	rate_of_requesters 	1
scalar Network900.node430 	number_of_resources 	49500
scalar Network900.node430 	time_period 	1
scalar Network900.node430 	number_of_messages 	272
scalar Network900.node430 	discovery_latency 	5940
scalar Network900.node430 	number_of_desired_resources 	20
scalar Network900.node430 	query_homogenity_rate 	33.333333333333
scalar Network900.node430 	qrecord_time 	10684
scalar Network900.node430 	discovery_resolution_rate 	50
scalar Network900.node100 	rate_of_requesters 	1
scalar Network900.node100 	number_of_resources 	49500
scalar Network900.node100 	time_period 	1
scalar Network900.node100 	number_of_messages 	11
scalar Network900.node100 	discovery_latency 	5964
scalar Network900.node100 	number_of_desired_resources 	20
scalar Network900.node100 	query_homogenity_rate 	33.333333333333
scalar Network900.node100 	qrecord_time 	10768
scalar Network900.node100 	discovery_resolution_rate 	33.333333333333
scalar Network900.node380 	rate_of_requesters 	1
scalar Network900.node380 	number_of_resources 	49500
scalar Network900.node380 	time_period 	1
scalar Network900.node380 	number_of_messages 	5
scalar Network900.node380 	discovery_latency 	6072
scalar Network900.node380 	number_of_desired_resources 	20
scalar Network900.node380 	query_homogenity_rate 	33.333333333333
scalar Network900.node380 	qrecord_time 	10828
scalar Network900.node380 	discovery_resolution_rate 	33.333333333333
scalar Network900.node410 	rate_of_requesters 	1
scalar Network900.node410 	number_of_resources 	49500
scalar Network900.node410 	time_period 	1
scalar Network900.node410 	number_of_messages 	5
scalar Network900.node410 	discovery_latency 	6084
scalar Network900.node410 	number_of_desired_resources 	20
scalar Network900.node410 	query_homogenity_rate 	33.333333333333
scalar Network900.node410 	qrecord_time 	10840
scalar Network900.node410 	discovery_resolution_rate 	33.333333333333
scalar Network900.node700 	rate_of_requesters 	1
scalar Network900.node700 	number_of_resources 	49500
scalar Network900.node700 	time_period 	1
scalar Network900.node700 	number_of_messages 	2
scalar Network900.node700 	discovery_latency 	6102
scalar Network900.node700 	number_of_desired_resources 	20
scalar Network900.node700 	query_homogenity_rate 	33.333333333333
scalar Network900.node700 	qrecord_time 	10852
scalar Network900.node700 	discovery_resolution_rate 	0
scalar Network900.node540 	rate_of_requesters 	1
scalar Network900.node540 	number_of_resources 	49500
scalar Network900.node540 	time_period 	1
scalar Network900.node540 	number_of_messages 	9
scalar Network900.node540 	discovery_latency 	6150
scalar Network900.node540 	number_of_desired_resources 	20
scalar Network900.node540 	query_homogenity_rate 	33.333333333333
scalar Network900.node540 	qrecord_time 	10864
scalar Network900.node540 	discovery_resolution_rate 	33.333333333333
scalar Network900.node30 	rate_of_requesters 	1
scalar Network900.node30 	number_of_resources 	49500
scalar Network900.node30 	time_period 	1
scalar Network900.node30 	number_of_messages 	2
scalar Network900.node30 	discovery_latency 	6030
scalar Network900.node30 	number_of_desired_resources 	20
scalar Network900.node30 	query_homogenity_rate 	33.333333333333
scalar Network900.node30 	qrecord_time 	10870
scalar Network900.node30 	discovery_resolution_rate 	0
scalar Network900.node170 	rate_of_requesters 	1
scalar Network900.node170 	number_of_resources 	49500
scalar Network900.node170 	time_period 	1
scalar Network900.node170 	number_of_messages 	2
scalar Network900.node170 	discovery_latency 	6162
scalar Network900.node170 	number_of_desired_resources 	20
scalar Network900.node170 	query_homogenity_rate 	33.333333333333
scalar Network900.node170 	qrecord_time 	10876
scalar Network900.node170 	discovery_resolution_rate 	0
scalar Network900.node230 	rate_of_requesters 	1
scalar Network900.node230 	number_of_resources 	49500
scalar Network900.node230 	time_period 	1
scalar Network900.node230 	number_of_messages 	5
scalar Network900.node230 	discovery_latency 	6144
scalar Network900.node230 	number_of_desired_resources 	20
scalar Network900.node230 	query_homogenity_rate 	33.333333333333
scalar Network900.node230 	qrecord_time 	10900
scalar Network900.node230 	discovery_resolution_rate 	33.333333333333
scalar Network900.node690 	rate_of_requesters 	1
scalar Network900.node690 	number_of_resources 	49500
scalar Network900.node690 	time_period 	1
scalar Network900.node690 	number_of_messages 	12
scalar Network900.node690 	discovery_latency 	6198
scalar Network900.node690 	number_of_desired_resources 	20
scalar Network900.node690 	query_homogenity_rate 	33.333333333333
scalar Network900.node690 	qrecord_time 	10930
scalar Network900.node690 	discovery_resolution_rate 	33.333333333333
scalar Network900.node870 	rate_of_requesters 	1
scalar Network900.node870 	number_of_resources 	49500
scalar Network900.node870 	time_period 	1
scalar Network900.node870 	number_of_messages 	2
scalar Network900.node870 	discovery_latency 	6222
scalar Network900.node870 	number_of_desired_resources 	20
scalar Network900.node870 	query_homogenity_rate 	33.333333333333
scalar Network900.node870 	qrecord_time 	10930
scalar Network900.node870 	discovery_resolution_rate 	0
scalar Network900.node40 	rate_of_requesters 	1
scalar Network900.node40 	number_of_resources 	49500
scalar Network900.node40 	time_period 	1
scalar Network900.node40 	number_of_messages 	2
scalar Network900.node40 	discovery_latency 	6174
scalar Network900.node40 	number_of_desired_resources 	20
scalar Network900.node40 	query_homogenity_rate 	33.333333333333
scalar Network900.node40 	qrecord_time 	10948
scalar Network900.node40 	discovery_resolution_rate 	0
scalar Network900.node50 	rate_of_requesters 	1
scalar Network900.node50 	number_of_resources 	49500
scalar Network900.node50 	time_period 	1
scalar Network900.node50 	number_of_messages 	14
scalar Network900.node50 	discovery_latency 	6282
scalar Network900.node50 	number_of_desired_resources 	20
scalar Network900.node50 	query_homogenity_rate 	33.333333333333
scalar Network900.node50 	qrecord_time 	10948
scalar Network900.node50 	discovery_resolution_rate 	33.333333333333
scalar Network900.node570 	rate_of_requesters 	1
scalar Network900.node570 	number_of_resources 	49500
scalar Network900.node570 	time_period 	1
scalar Network900.node570 	number_of_messages 	2
scalar Network900.node570 	discovery_latency 	6162
scalar Network900.node570 	number_of_desired_resources 	20
scalar Network900.node570 	query_homogenity_rate 	33.333333333333
scalar Network900.node570 	qrecord_time 	10954
scalar Network900.node570 	discovery_resolution_rate 	0
scalar Network900.node530 	rate_of_requesters 	1
scalar Network900.node530 	number_of_resources 	49500
scalar Network900.node530 	time_period 	1
scalar Network900.node530 	number_of_messages 	2
scalar Network900.node530 	discovery_latency 	6150
scalar Network900.node530 	number_of_desired_resources 	20
scalar Network900.node530 	query_homogenity_rate 	33.333333333333
scalar Network900.node530 	qrecord_time 	10954
scalar Network900.node530 	discovery_resolution_rate 	0
scalar Network900.node310 	rate_of_requesters 	1
scalar Network900.node310 	number_of_resources 	49500
scalar Network900.node310 	time_period 	1
scalar Network900.node310 	number_of_messages 	2
scalar Network900.node310 	discovery_latency 	6210
scalar Network900.node310 	number_of_desired_resources 	20
scalar Network900.node310 	query_homogenity_rate 	33.333333333333
scalar Network900.node310 	qrecord_time 	10960
scalar Network900.node310 	discovery_resolution_rate 	0
scalar Network900.node500 	rate_of_requesters 	1
scalar Network900.node500 	number_of_resources 	49500
scalar Network900.node500 	time_period 	1
scalar Network900.node500 	number_of_messages 	2
scalar Network900.node500 	discovery_latency 	6270
scalar Network900.node500 	number_of_desired_resources 	20
scalar Network900.node500 	query_homogenity_rate 	33.333333333333
scalar Network900.node500 	qrecord_time 	10960
scalar Network900.node500 	discovery_resolution_rate 	0
scalar Network900.node650 	rate_of_requesters 	1
scalar Network900.node650 	number_of_resources 	49500
scalar Network900.node650 	time_period 	1
scalar Network900.node650 	number_of_messages 	2
scalar Network900.node650 	discovery_latency 	6330
scalar Network900.node650 	number_of_desired_resources 	20
scalar Network900.node650 	query_homogenity_rate 	33.333333333333
scalar Network900.node650 	qrecord_time 	10972
scalar Network900.node650 	discovery_resolution_rate 	0
scalar Network900.node270 	rate_of_requesters 	1
scalar Network900.node270 	number_of_resources 	49500
scalar Network900.node270 	time_period 	1
scalar Network900.node270 	number_of_messages 	2
scalar Network900.node270 	discovery_latency 	6246
scalar Network900.node270 	number_of_desired_resources 	20
scalar Network900.node270 	query_homogenity_rate 	33.333333333333
scalar Network900.node270 	qrecord_time 	10978
scalar Network900.node270 	discovery_resolution_rate 	0
scalar Network900.node670 	rate_of_requesters 	1
scalar Network900.node670 	number_of_resources 	49500
scalar Network900.node670 	time_period 	1
scalar Network900.node670 	number_of_messages 	13
scalar Network900.node670 	discovery_latency 	6342
scalar Network900.node670 	number_of_desired_resources 	20
scalar Network900.node670 	query_homogenity_rate 	33.333333333333
scalar Network900.node670 	qrecord_time 	10990
scalar Network900.node670 	discovery_resolution_rate 	33.333333333333
scalar Network900.node150 	rate_of_requesters 	1
scalar Network900.node150 	number_of_resources 	49500
scalar Network900.node150 	time_period 	1
scalar Network900.node150 	number_of_messages 	2
scalar Network900.node150 	discovery_latency 	6282
scalar Network900.node150 	number_of_desired_resources 	20
scalar Network900.node150 	query_homogenity_rate 	33.333333333333
scalar Network900.node150 	qrecord_time 	10996
scalar Network900.node150 	discovery_resolution_rate 	0
scalar Network900.node790 	rate_of_requesters 	1
scalar Network900.node790 	number_of_resources 	49500
scalar Network900.node790 	time_period 	1
scalar Network900.node790 	number_of_messages 	0
scalar Network900.node790 	discovery_latency 	6306
scalar Network900.node790 	number_of_desired_resources 	20
scalar Network900.node790 	query_homogenity_rate 	33.333333333333
scalar Network900.node790 	qrecord_time 	11002
scalar Network900.node790 	discovery_resolution_rate 	0
scalar Network900.node740 	rate_of_requesters 	1
scalar Network900.node740 	number_of_resources 	49500
scalar Network900.node740 	time_period 	1
scalar Network900.node740 	number_of_messages 	0
scalar Network900.node740 	discovery_latency 	6258
scalar Network900.node740 	number_of_desired_resources 	20
scalar Network900.node740 	query_homogenity_rate 	33.333333333333
scalar Network900.node740 	qrecord_time 	11002
scalar Network900.node740 	discovery_resolution_rate 	0
scalar Network900.node350 	rate_of_requesters 	1
scalar Network900.node350 	number_of_resources 	49500
scalar Network900.node350 	time_period 	1
scalar Network900.node350 	number_of_messages 	269
scalar Network900.node350 	discovery_latency 	6246
scalar Network900.node350 	number_of_desired_resources 	20
scalar Network900.node350 	query_homogenity_rate 	33.333333333333
scalar Network900.node350 	qrecord_time 	11014
scalar Network900.node350 	discovery_resolution_rate 	16.666666666667
scalar Network900.node610 	rate_of_requesters 	1
scalar Network900.node610 	number_of_resources 	49500
scalar Network900.node610 	time_period 	1
scalar Network900.node610 	number_of_messages 	2
scalar Network900.node610 	discovery_latency 	6294
scalar Network900.node610 	number_of_desired_resources 	20
scalar Network900.node610 	query_homogenity_rate 	33.333333333333
scalar Network900.node610 	qrecord_time 	11026
scalar Network900.node610 	discovery_resolution_rate 	0
scalar Network900.node200 	rate_of_requesters 	1
scalar Network900.node200 	number_of_resources 	49500
scalar Network900.node200 	time_period 	1
scalar Network900.node200 	number_of_messages 	2
scalar Network900.node200 	discovery_latency 	6330
scalar Network900.node200 	number_of_desired_resources 	20
scalar Network900.node200 	query_homogenity_rate 	33.333333333333
scalar Network900.node200 	qrecord_time 	11044
scalar Network900.node200 	discovery_resolution_rate 	0
scalar Network900.node850 	rate_of_requesters 	1
scalar Network900.node850 	number_of_resources 	49500
scalar Network900.node850 	time_period 	1
scalar Network900.node850 	number_of_messages 	295
scalar Network900.node850 	discovery_latency 	6354
scalar Network900.node850 	number_of_desired_resources 	20
scalar Network900.node850 	query_homogenity_rate 	33.333333333333
scalar Network900.node850 	qrecord_time 	11044
scalar Network900.node850 	discovery_resolution_rate 	16.666666666667
scalar Network900.node330 	rate_of_requesters 	1
scalar Network900.node330 	number_of_resources 	49500
scalar Network900.node330 	time_period 	1
scalar Network900.node330 	number_of_messages 	2
scalar Network900.node330 	discovery_latency 	6282
scalar Network900.node330 	number_of_desired_resources 	20
scalar Network900.node330 	query_homogenity_rate 	33.333333333333
scalar Network900.node330 	qrecord_time 	11056
scalar Network900.node330 	discovery_resolution_rate 	0
scalar Network900.node890 	rate_of_requesters 	1
scalar Network900.node890 	number_of_resources 	49500
scalar Network900.node890 	time_period 	1
scalar Network900.node890 	number_of_messages 	2
scalar Network900.node890 	discovery_latency 	6306
scalar Network900.node890 	number_of_desired_resources 	20
scalar Network900.node890 	query_homogenity_rate 	33.333333333333
scalar Network900.node890 	qrecord_time 	11056
scalar Network900.node890 	discovery_resolution_rate 	0
scalar Network900.node260 	rate_of_requesters 	1
scalar Network900.node260 	number_of_resources 	49500
scalar Network900.node260 	time_period 	1
scalar Network900.node260 	number_of_messages 	2
scalar Network900.node260 	discovery_latency 	6294
scalar Network900.node260 	number_of_desired_resources 	20
scalar Network900.node260 	query_homogenity_rate 	33.333333333333
scalar Network900.node260 	qrecord_time 	11056
scalar Network900.node260 	discovery_resolution_rate 	0
scalar Network900.node460 	rate_of_requesters 	1
scalar Network900.node460 	number_of_resources 	49500
scalar Network900.node460 	time_period 	1
scalar Network900.node460 	number_of_messages 	2
scalar Network900.node460 	discovery_latency 	6378
scalar Network900.node460 	number_of_desired_resources 	20
scalar Network900.node460 	query_homogenity_rate 	33.333333333333
scalar Network900.node460 	qrecord_time 	11062
scalar Network900.node460 	discovery_resolution_rate 	0
scalar Network900.node110 	rate_of_requesters 	1
scalar Network900.node110 	number_of_resources 	49500
scalar Network900.node110 	time_period 	1
scalar Network900.node110 	number_of_messages 	0
scalar Network900.node110 	discovery_latency 	6390
scalar Network900.node110 	number_of_desired_resources 	20
scalar Network900.node110 	query_homogenity_rate 	33.333333333333
scalar Network900.node110 	qrecord_time 	11062
scalar Network900.node110 	discovery_resolution_rate 	0
scalar Network900.node140 	rate_of_requesters 	1
scalar Network900.node140 	number_of_resources 	49500
scalar Network900.node140 	time_period 	1
scalar Network900.node140 	number_of_messages 	39
scalar Network900.node140 	discovery_latency 	6318
scalar Network900.node140 	number_of_desired_resources 	20
scalar Network900.node140 	query_homogenity_rate 	33.333333333333
scalar Network900.node140 	qrecord_time 	11068
scalar Network900.node140 	discovery_resolution_rate 	33.333333333333
scalar Network900.node490 	rate_of_requesters 	1
scalar Network900.node490 	number_of_resources 	49500
scalar Network900.node490 	time_period 	1
scalar Network900.node490 	number_of_messages 	7
scalar Network900.node490 	discovery_latency 	6228
scalar Network900.node490 	number_of_desired_resources 	20
scalar Network900.node490 	query_homogenity_rate 	33.333333333333
scalar Network900.node490 	qrecord_time 	11086
scalar Network900.node490 	discovery_resolution_rate 	33.333333333333
scalar Network900.node800 	rate_of_requesters 	1
scalar Network900.node800 	number_of_resources 	49500
scalar Network900.node800 	time_period 	1
scalar Network900.node800 	number_of_messages 	2
scalar Network900.node800 	discovery_latency 	6282
scalar Network900.node800 	number_of_desired_resources 	20
scalar Network900.node800 	query_homogenity_rate 	33.333333333333
scalar Network900.node800 	qrecord_time 	11086
scalar Network900.node800 	discovery_resolution_rate 	0
scalar Network900.node560 	rate_of_requesters 	1
scalar Network900.node560 	number_of_resources 	49500
scalar Network900.node560 	time_period 	1
scalar Network900.node560 	number_of_messages 	2
scalar Network900.node560 	discovery_latency 	6366
scalar Network900.node560 	number_of_desired_resources 	20
scalar Network900.node560 	query_homogenity_rate 	33.333333333333
scalar Network900.node560 	qrecord_time 	11092
scalar Network900.node560 	discovery_resolution_rate 	0
scalar Network900.node210 	rate_of_requesters 	1
scalar Network900.node210 	number_of_resources 	49500
scalar Network900.node210 	time_period 	1
scalar Network900.node210 	number_of_messages 	2
scalar Network900.node210 	discovery_latency 	6366
scalar Network900.node210 	number_of_desired_resources 	20
scalar Network900.node210 	query_homogenity_rate 	33.333333333333
scalar Network900.node210 	qrecord_time 	11098
scalar Network900.node210 	discovery_resolution_rate 	0
scalar Network900.node280 	rate_of_requesters 	1
scalar Network900.node280 	number_of_resources 	49500
scalar Network900.node280 	time_period 	1
scalar Network900.node280 	number_of_messages 	2
scalar Network900.node280 	discovery_latency 	6318
scalar Network900.node280 	number_of_desired_resources 	20
scalar Network900.node280 	query_homogenity_rate 	33.333333333333
scalar Network900.node280 	qrecord_time 	11116
scalar Network900.node280 	discovery_resolution_rate 	0
scalar Network900.node580 	rate_of_requesters 	1
scalar Network900.node580 	number_of_resources 	49500
scalar Network900.node580 	time_period 	1
scalar Network900.node580 	number_of_messages 	269
scalar Network900.node580 	discovery_latency 	6366
scalar Network900.node580 	number_of_desired_resources 	20
scalar Network900.node580 	query_homogenity_rate 	33.333333333333
scalar Network900.node580 	qrecord_time 	11116
scalar Network900.node580 	discovery_resolution_rate 	16.666666666667
scalar Network900.node160 	rate_of_requesters 	1
scalar Network900.node160 	number_of_resources 	49500
scalar Network900.node160 	time_period 	1
scalar Network900.node160 	number_of_messages 	2
scalar Network900.node160 	discovery_latency 	6318
scalar Network900.node160 	number_of_desired_resources 	20
scalar Network900.node160 	query_homogenity_rate 	33.333333333333
scalar Network900.node160 	qrecord_time 	11122
scalar Network900.node160 	discovery_resolution_rate 	0
scalar Network900.node400 	rate_of_requesters 	1
scalar Network900.node400 	number_of_resources 	49500
scalar Network900.node400 	time_period 	1
scalar Network900.node400 	number_of_messages 	2
scalar Network900.node400 	discovery_latency 	6306
scalar Network900.node400 	number_of_desired_resources 	20
scalar Network900.node400 	query_homogenity_rate 	33.333333333333
scalar Network900.node400 	qrecord_time 	11128
scalar Network900.node400 	discovery_resolution_rate 	0
scalar Network900.node80 	rate_of_requesters 	1
scalar Network900.node80 	number_of_resources 	49500
scalar Network900.node80 	time_period 	1
scalar Network900.node80 	number_of_messages 	2
scalar Network900.node80 	discovery_latency 	6474
scalar Network900.node80 	number_of_desired_resources 	20
scalar Network900.node80 	query_homogenity_rate 	33.333333333333
scalar Network900.node80 	qrecord_time 	11140
scalar Network900.node80 	discovery_resolution_rate 	0
scalar Network900.node90 	rate_of_requesters 	1
scalar Network900.node90 	number_of_resources 	49500
scalar Network900.node90 	time_period 	1
scalar Network900.node90 	number_of_messages 	2
scalar Network900.node90 	discovery_latency 	6378
scalar Network900.node90 	number_of_desired_resources 	20
scalar Network900.node90 	query_homogenity_rate 	33.333333333333
scalar Network900.node90 	qrecord_time 	11146
scalar Network900.node90 	discovery_resolution_rate 	0
scalar Network900.node550 	rate_of_requesters 	1
scalar Network900.node550 	number_of_resources 	49500
scalar Network900.node550 	time_period 	1
scalar Network900.node550 	number_of_messages 	0
scalar Network900.node550 	discovery_latency 	6450
scalar Network900.node550 	number_of_desired_resources 	20
scalar Network900.node550 	query_homogenity_rate 	33.333333333333
scalar Network900.node550 	qrecord_time 	11146
scalar Network900.node550 	discovery_resolution_rate 	0
scalar Network900.node460 	rate_of_requesters 	1
scalar Network900.node460 	number_of_resources 	49500
scalar Network900.node460 	time_period 	2
scalar Network900.node460 	number_of_messages 	2
scalar Network900.node460 	discovery_latency 	6294
scalar Network900.node460 	number_of_desired_resources 	20
scalar Network900.node460 	query_homogenity_rate 	33.333333333333
scalar Network900.node460 	qrecord_time 	11149.171241931
scalar Network900.node460 	discovery_resolution_rate 	0
scalar Network900.node360 	rate_of_requesters 	1
scalar Network900.node360 	number_of_resources 	49500
scalar Network900.node360 	time_period 	1
scalar Network900.node360 	number_of_messages 	2
scalar Network900.node360 	discovery_latency 	6438
scalar Network900.node360 	number_of_desired_resources 	20
scalar Network900.node360 	query_homogenity_rate 	33.333333333333
scalar Network900.node360 	qrecord_time 	11152
scalar Network900.node360 	discovery_resolution_rate 	0
scalar Network900.node770 	rate_of_requesters 	1
scalar Network900.node770 	number_of_resources 	49500
scalar Network900.node770 	time_period 	1
scalar Network900.node770 	number_of_messages 	2
scalar Network900.node770 	discovery_latency 	6474
scalar Network900.node770 	number_of_desired_resources 	20
scalar Network900.node770 	query_homogenity_rate 	33.333333333333
scalar Network900.node770 	qrecord_time 	11158
scalar Network900.node770 	discovery_resolution_rate 	0
scalar Network900.node750 	rate_of_requesters 	1
scalar Network900.node750 	number_of_resources 	49500
scalar Network900.node750 	time_period 	1
scalar Network900.node750 	number_of_messages 	2
scalar Network900.node750 	discovery_latency 	6426
scalar Network900.node750 	number_of_desired_resources 	20
scalar Network900.node750 	query_homogenity_rate 	33.333333333333
scalar Network900.node750 	qrecord_time 	11158
scalar Network900.node750 	discovery_resolution_rate 	0
scalar Network900.node440 	rate_of_requesters 	1
scalar Network900.node440 	number_of_resources 	49500
scalar Network900.node440 	time_period 	1
scalar Network900.node440 	number_of_messages 	2
scalar Network900.node440 	discovery_latency 	6354
scalar Network900.node440 	number_of_desired_resources 	20
scalar Network900.node440 	query_homogenity_rate 	33.333333333333
scalar Network900.node440 	qrecord_time 	11164
scalar Network900.node440 	discovery_resolution_rate 	0
scalar Network900.node810 	rate_of_requesters 	1
scalar Network900.node810 	number_of_resources 	49500
scalar Network900.node810 	time_period 	1
scalar Network900.node810 	number_of_messages 	0
scalar Network900.node810 	discovery_latency 	6378
scalar Network900.node810 	number_of_desired_resources 	20
scalar Network900.node810 	query_homogenity_rate 	33.333333333333
scalar Network900.node810 	qrecord_time 	11170
scalar Network900.node810 	discovery_resolution_rate 	0
scalar Network900.node110 	rate_of_requesters 	1
scalar Network900.node110 	number_of_resources 	49500
scalar Network900.node110 	time_period 	2
scalar Network900.node110 	number_of_messages 	0
scalar Network900.node110 	discovery_latency 	6210
scalar Network900.node110 	number_of_desired_resources 	20
scalar Network900.node110 	query_homogenity_rate 	33.333333333333
scalar Network900.node110 	qrecord_time 	11175.675978389
scalar Network900.node110 	discovery_resolution_rate 	0
scalar Network900.node760 	rate_of_requesters 	1
scalar Network900.node760 	number_of_resources 	49500
scalar Network900.node760 	time_period 	1
scalar Network900.node760 	number_of_messages 	2
scalar Network900.node760 	discovery_latency 	6438
scalar Network900.node760 	number_of_desired_resources 	20
scalar Network900.node760 	query_homogenity_rate 	33.333333333333
scalar Network900.node760 	qrecord_time 	11188
scalar Network900.node760 	discovery_resolution_rate 	0
scalar Network900.node120 	rate_of_requesters 	1
scalar Network900.node120 	number_of_resources 	49500
scalar Network900.node120 	time_period 	1
scalar Network900.node120 	number_of_messages 	2
scalar Network900.node120 	discovery_latency 	6522
scalar Network900.node120 	number_of_desired_resources 	20
scalar Network900.node120 	query_homogenity_rate 	33.333333333333
scalar Network900.node120 	qrecord_time 	11188
scalar Network900.node120 	discovery_resolution_rate 	0
scalar Network900.node340 	rate_of_requesters 	1
scalar Network900.node340 	number_of_resources 	49500
scalar Network900.node340 	time_period 	1
scalar Network900.node340 	number_of_messages 	36
scalar Network900.node340 	discovery_latency 	6438
scalar Network900.node340 	number_of_desired_resources 	20
scalar Network900.node340 	query_homogenity_rate 	33.333333333333
scalar Network900.node340 	qrecord_time 	11194
scalar Network900.node340 	discovery_resolution_rate 	33.333333333333
scalar Network900.node770 	rate_of_requesters 	1
scalar Network900.node770 	number_of_resources 	49500
scalar Network900.node770 	time_period 	3
scalar Network900.node770 	number_of_messages 	2
scalar Network900.node770 	discovery_latency 	6246
scalar Network900.node770 	number_of_desired_resources 	20
scalar Network900.node770 	query_homogenity_rate 	33.333333333333
scalar Network900.node770 	qrecord_time 	11212.244634616
scalar Network900.node770 	discovery_resolution_rate 	0
scalar Network900.node820 	rate_of_requesters 	1
scalar Network900.node820 	number_of_resources 	49500
scalar Network900.node820 	time_period 	1
scalar Network900.node820 	number_of_messages 	295
scalar Network900.node820 	discovery_latency 	6450
scalar Network900.node820 	number_of_desired_resources 	20
scalar Network900.node820 	query_homogenity_rate 	33.333333333333
scalar Network900.node820 	qrecord_time 	11224
scalar Network900.node820 	discovery_resolution_rate 	16.666666666667
scalar Network900.node370 	rate_of_requesters 	1
scalar Network900.node370 	number_of_resources 	49500
scalar Network900.node370 	time_period 	1
scalar Network900.node370 	number_of_messages 	11
scalar Network900.node370 	discovery_latency 	6474
scalar Network900.node370 	number_of_desired_resources 	20
scalar Network900.node370 	query_homogenity_rate 	33.333333333333
scalar Network900.node370 	qrecord_time 	11248
scalar Network900.node370 	discovery_resolution_rate 	33.333333333333
scalar Network900.node180 	rate_of_requesters 	1
scalar Network900.node180 	number_of_resources 	49500
scalar Network900.node180 	time_period 	1
scalar Network900.node180 	number_of_messages 	11
scalar Network900.node180 	discovery_latency 	6522
scalar Network900.node180 	number_of_desired_resources 	20
scalar Network900.node180 	query_homogenity_rate 	33.333333333333
scalar Network900.node180 	qrecord_time 	11254
scalar Network900.node180 	discovery_resolution_rate 	33.333333333333
scalar Network900.node770 	rate_of_requesters 	1
scalar Network900.node770 	number_of_resources 	49500
scalar Network900.node770 	time_period 	2
scalar Network900.node770 	number_of_messages 	2
scalar Network900.node770 	discovery_latency 	6378
scalar Network900.node770 	number_of_desired_resources 	20
scalar Network900.node770 	query_homogenity_rate 	33.333333333333
scalar Network900.node770 	qrecord_time 	11255.641360962
scalar Network900.node770 	discovery_resolution_rate 	0
scalar Network900.node220 	rate_of_requesters 	1
scalar Network900.node220 	number_of_resources 	49500
scalar Network900.node220 	time_period 	1
scalar Network900.node220 	number_of_messages 	2
scalar Network900.node220 	discovery_latency 	6546
scalar Network900.node220 	number_of_desired_resources 	20
scalar Network900.node220 	query_homogenity_rate 	33.333333333333
scalar Network900.node220 	qrecord_time 	11260
scalar Network900.node220 	discovery_resolution_rate 	0
scalar Network900.node730 	rate_of_requesters 	1
scalar Network900.node730 	number_of_resources 	49500
scalar Network900.node730 	time_period 	1
scalar Network900.node730 	number_of_messages 	2
scalar Network900.node730 	discovery_latency 	6366
scalar Network900.node730 	number_of_desired_resources 	20
scalar Network900.node730 	query_homogenity_rate 	33.333333333333
scalar Network900.node730 	qrecord_time 	11260
scalar Network900.node730 	discovery_resolution_rate 	0
scalar Network900.node240 	rate_of_requesters 	1
scalar Network900.node240 	number_of_resources 	49500
scalar Network900.node240 	time_period 	1
scalar Network900.node240 	number_of_messages 	2
scalar Network900.node240 	discovery_latency 	6486
scalar Network900.node240 	number_of_desired_resources 	20
scalar Network900.node240 	query_homogenity_rate 	33.333333333333
scalar Network900.node240 	qrecord_time 	11284
scalar Network900.node240 	discovery_resolution_rate 	0
scalar Network900.node680 	rate_of_requesters 	1
scalar Network900.node680 	number_of_resources 	49500
scalar Network900.node680 	time_period 	1
scalar Network900.node680 	number_of_messages 	299
scalar Network900.node680 	discovery_latency 	6570
scalar Network900.node680 	number_of_desired_resources 	20
scalar Network900.node680 	query_homogenity_rate 	33.333333333333
scalar Network900.node680 	qrecord_time 	11284
scalar Network900.node680 	discovery_resolution_rate 	50
scalar Network900.node390 	rate_of_requesters 	1
scalar Network900.node390 	number_of_resources 	49500
scalar Network900.node390 	time_period 	1
scalar Network900.node390 	number_of_messages 	2
scalar Network900.node390 	discovery_latency 	6570
scalar Network900.node390 	number_of_desired_resources 	20
scalar Network900.node390 	query_homogenity_rate 	33.333333333333
scalar Network900.node390 	qrecord_time 	11284
scalar Network900.node390 	discovery_resolution_rate 	0
scalar Network900.node780 	rate_of_requesters 	1
scalar Network900.node780 	number_of_resources 	49500
scalar Network900.node780 	time_period 	1
scalar Network900.node780 	number_of_messages 	2
scalar Network900.node780 	discovery_latency 	6462
scalar Network900.node780 	number_of_desired_resources 	20
scalar Network900.node780 	query_homogenity_rate 	33.333333333333
scalar Network900.node780 	qrecord_time 	11302
scalar Network900.node780 	discovery_resolution_rate 	0
scalar Network900.node10 	rate_of_requesters 	1
scalar Network900.node10 	number_of_resources 	49500
scalar Network900.node10 	time_period 	1
scalar Network900.node10 	number_of_messages 	2
scalar Network900.node10 	discovery_latency 	6438
scalar Network900.node10 	number_of_desired_resources 	20
scalar Network900.node10 	query_homogenity_rate 	33.333333333333
scalar Network900.node10 	qrecord_time 	11314
scalar Network900.node10 	discovery_resolution_rate 	0
scalar Network900.node450 	rate_of_requesters 	1
scalar Network900.node450 	number_of_resources 	49500
scalar Network900.node450 	time_period 	1
scalar Network900.node450 	number_of_messages 	2
scalar Network900.node450 	discovery_latency 	6642
scalar Network900.node450 	number_of_desired_resources 	20
scalar Network900.node450 	query_homogenity_rate 	33.333333333333
scalar Network900.node450 	qrecord_time 	11368
scalar Network900.node450 	discovery_resolution_rate 	0
scalar Network900.node390 	rate_of_requesters 	1
scalar Network900.node390 	number_of_resources 	49500
scalar Network900.node390 	time_period 	2
scalar Network900.node390 	number_of_messages 	2
scalar Network900.node390 	discovery_latency 	6378
scalar Network900.node390 	number_of_desired_resources 	20
scalar Network900.node390 	query_homogenity_rate 	33.333333333333
scalar Network900.node390 	qrecord_time 	11373.486820171
scalar Network900.node390 	discovery_resolution_rate 	0
scalar Network900.node90 	rate_of_requesters 	1
scalar Network900.node90 	number_of_resources 	49500
scalar Network900.node90 	time_period 	2
scalar Network900.node90 	number_of_messages 	2
scalar Network900.node90 	discovery_latency 	6606
scalar Network900.node90 	number_of_desired_resources 	20
scalar Network900.node90 	query_homogenity_rate 	33.333333333333
scalar Network900.node90 	qrecord_time 	11477.539594558
scalar Network900.node90 	discovery_resolution_rate 	0
scalar Network900.node220 	rate_of_requesters 	1
scalar Network900.node220 	number_of_resources 	49500
scalar Network900.node220 	time_period 	2
scalar Network900.node220 	number_of_messages 	7
scalar Network900.node220 	discovery_latency 	6522
scalar Network900.node220 	number_of_desired_resources 	20
scalar Network900.node220 	query_homogenity_rate 	33.333333333333
scalar Network900.node220 	qrecord_time 	11509.57556926
scalar Network900.node220 	discovery_resolution_rate 	33.333333333333
scalar Network900.node640 	rate_of_requesters 	1
scalar Network900.node640 	number_of_resources 	49500
scalar Network900.node640 	time_period 	2
scalar Network900.node640 	number_of_messages 	0
scalar Network900.node640 	discovery_latency 	6498
scalar Network900.node640 	number_of_desired_resources 	20
scalar Network900.node640 	query_homogenity_rate 	33.333333333333
scalar Network900.node640 	qrecord_time 	11522.702281477
scalar Network900.node640 	discovery_resolution_rate 	0
scalar Network900.node300 	rate_of_requesters 	1
scalar Network900.node300 	number_of_resources 	49500
scalar Network900.node300 	time_period 	2
scalar Network900.node300 	number_of_messages 	2
scalar Network900.node300 	discovery_latency 	6474
scalar Network900.node300 	number_of_desired_resources 	20
scalar Network900.node300 	query_homogenity_rate 	33.333333333333
scalar Network900.node300 	qrecord_time 	11525.38861421
scalar Network900.node300 	discovery_resolution_rate 	0
scalar Network900.node0 	rate_of_requesters 	1
scalar Network900.node0 	number_of_resources 	49500
scalar Network900.node0 	time_period 	2
scalar Network900.node0 	number_of_messages 	2
scalar Network900.node0 	discovery_latency 	6234
scalar Network900.node0 	number_of_desired_resources 	20
scalar Network900.node0 	query_homogenity_rate 	33.333333333333
scalar Network900.node0 	qrecord_time 	11577.350444615
scalar Network900.node0 	discovery_resolution_rate 	0
scalar Network900.node390 	rate_of_requesters 	1
scalar Network900.node390 	number_of_resources 	49500
scalar Network900.node390 	time_period 	3
scalar Network900.node390 	number_of_messages 	2
scalar Network900.node390 	discovery_latency 	6378
scalar Network900.node390 	number_of_desired_resources 	20
scalar Network900.node390 	query_homogenity_rate 	33.333333333333
scalar Network900.node390 	qrecord_time 	11583.36236477
scalar Network900.node390 	discovery_resolution_rate 	0
scalar Network900.node410 	rate_of_requesters 	1
scalar Network900.node410 	number_of_resources 	49500
scalar Network900.node410 	time_period 	2
scalar Network900.node410 	number_of_messages 	2
scalar Network900.node410 	discovery_latency 	6474
scalar Network900.node410 	number_of_desired_resources 	20
scalar Network900.node410 	query_homogenity_rate 	33.333333333333
scalar Network900.node410 	qrecord_time 	11600.411044493
scalar Network900.node410 	discovery_resolution_rate 	0
scalar Network900.node120 	rate_of_requesters 	1
scalar Network900.node120 	number_of_resources 	49500
scalar Network900.node120 	time_period 	2
scalar Network900.node120 	number_of_messages 	2
scalar Network900.node120 	discovery_latency 	6414
scalar Network900.node120 	number_of_desired_resources 	20
scalar Network900.node120 	query_homogenity_rate 	33.333333333333
scalar Network900.node120 	qrecord_time 	11614.53397736
scalar Network900.node120 	discovery_resolution_rate 	0
scalar Network900.node20 	rate_of_requesters 	1
scalar Network900.node20 	number_of_resources 	49500
scalar Network900.node20 	time_period 	2
scalar Network900.node20 	number_of_messages 	2
scalar Network900.node20 	discovery_latency 	6534
scalar Network900.node20 	number_of_desired_resources 	20
scalar Network900.node20 	query_homogenity_rate 	33.333333333333
scalar Network900.node20 	qrecord_time 	11752.764240943
scalar Network900.node20 	discovery_resolution_rate 	0
scalar Network900.node720 	rate_of_requesters 	1
scalar Network900.node720 	number_of_resources 	49500
scalar Network900.node720 	time_period 	4
scalar Network900.node720 	number_of_messages 	2
scalar Network900.node720 	discovery_latency 	6150
scalar Network900.node720 	number_of_desired_resources 	20
scalar Network900.node720 	query_homogenity_rate 	33.333333333333
scalar Network900.node720 	qrecord_time 	11755.811151857
scalar Network900.node720 	discovery_resolution_rate 	0
scalar Network900.node720 	rate_of_requesters 	1
scalar Network900.node720 	number_of_resources 	49500
scalar Network900.node720 	time_period 	3
scalar Network900.node720 	number_of_messages 	2
scalar Network900.node720 	discovery_latency 	6546
scalar Network900.node720 	number_of_desired_resources 	20
scalar Network900.node720 	query_homogenity_rate 	33.333333333333
scalar Network900.node720 	qrecord_time 	11765.52504101
scalar Network900.node720 	discovery_resolution_rate 	0
scalar Network900.node430 	rate_of_requesters 	1
scalar Network900.node430 	number_of_resources 	49500
scalar Network900.node430 	time_period 	2
scalar Network900.node430 	number_of_messages 	0
scalar Network900.node430 	discovery_latency 	6318
scalar Network900.node430 	number_of_desired_resources 	20
scalar Network900.node430 	query_homogenity_rate 	33.333333333333
scalar Network900.node430 	qrecord_time 	11795.823970741
scalar Network900.node430 	discovery_resolution_rate 	0
scalar Network900.node150 	rate_of_requesters 	1
scalar Network900.node150 	number_of_resources 	49500
scalar Network900.node150 	time_period 	2
scalar Network900.node150 	number_of_messages 	2
scalar Network900.node150 	discovery_latency 	6138
scalar Network900.node150 	number_of_desired_resources 	20
scalar Network900.node150 	query_homogenity_rate 	33.333333333333
scalar Network900.node150 	qrecord_time 	11888.110059352
scalar Network900.node150 	discovery_resolution_rate 	0
scalar Network900.node540 	rate_of_requesters 	1
scalar Network900.node540 	number_of_resources 	49500
scalar Network900.node540 	time_period 	2
scalar Network900.node540 	number_of_messages 	2
scalar Network900.node540 	discovery_latency 	6306
scalar Network900.node540 	number_of_desired_resources 	20
scalar Network900.node540 	query_homogenity_rate 	33.333333333333
scalar Network900.node540 	qrecord_time 	11965.752683933
scalar Network900.node540 	discovery_resolution_rate 	0
scalar Network900.node60 	rate_of_requesters 	1
scalar Network900.node60 	number_of_resources 	49500
scalar Network900.node60 	time_period 	2
scalar Network900.node60 	number_of_messages 	2
scalar Network900.node60 	discovery_latency 	6414
scalar Network900.node60 	number_of_desired_resources 	20
scalar Network900.node60 	query_homogenity_rate 	33.333333333333
scalar Network900.node60 	qrecord_time 	12033.783404083
scalar Network900.node60 	discovery_resolution_rate 	0
scalar Network900.node30 	rate_of_requesters 	1
scalar Network900.node30 	number_of_resources 	49500
scalar Network900.node30 	time_period 	2
scalar Network900.node30 	number_of_messages 	2
scalar Network900.node30 	discovery_latency 	6270
scalar Network900.node30 	number_of_desired_resources 	20
scalar Network900.node30 	query_homogenity_rate 	33.333333333333
scalar Network900.node30 	qrecord_time 	12053.169736469
scalar Network900.node30 	discovery_resolution_rate 	0
scalar Network900.node320 	rate_of_requesters 	1
scalar Network900.node320 	number_of_resources 	49500
scalar Network900.node320 	time_period 	2
scalar Network900.node320 	number_of_messages 	2
scalar Network900.node320 	discovery_latency 	6198
scalar Network900.node320 	number_of_desired_resources 	20
scalar Network900.node320 	query_homogenity_rate 	33.333333333333
scalar Network900.node320 	qrecord_time 	12122.593775418
scalar Network900.node320 	discovery_resolution_rate 	0
scalar Network900.node10 	rate_of_requesters 	1
scalar Network900.node10 	number_of_resources 	49500
scalar Network900.node10 	time_period 	2
scalar Network900.node10 	number_of_messages 	2
scalar Network900.node10 	discovery_latency 	6222
scalar Network900.node10 	number_of_desired_resources 	20
scalar Network900.node10 	query_homogenity_rate 	33.333333333333
scalar Network900.node10 	qrecord_time 	12169.27215321
scalar Network900.node10 	discovery_resolution_rate 	0
scalar Network900.node850 	rate_of_requesters 	1
scalar Network900.node850 	number_of_resources 	49500
scalar Network900.node850 	time_period 	2
scalar Network900.node850 	number_of_messages 	2
scalar Network900.node850 	discovery_latency 	6210
scalar Network900.node850 	number_of_desired_resources 	20
scalar Network900.node850 	query_homogenity_rate 	33.333333333333
scalar Network900.node850 	qrecord_time 	12185.247240656
scalar Network900.node850 	discovery_resolution_rate 	0
scalar Network900.node380 	rate_of_requesters 	1
scalar Network900.node380 	number_of_resources 	49500
scalar Network900.node380 	time_period 	2
scalar Network900.node380 	number_of_messages 	2
scalar Network900.node380 	discovery_latency 	6534
scalar Network900.node380 	number_of_desired_resources 	20
scalar Network900.node380 	query_homogenity_rate 	33.333333333333
scalar Network900.node380 	qrecord_time 	12236.427390329
scalar Network900.node380 	discovery_resolution_rate 	0
scalar Network900.node680 	rate_of_requesters 	1
scalar Network900.node680 	number_of_resources 	49500
scalar Network900.node680 	time_period 	2
scalar Network900.node680 	number_of_messages 	2
scalar Network900.node680 	discovery_latency 	6282
scalar Network900.node680 	number_of_desired_resources 	20
scalar Network900.node680 	query_homogenity_rate 	33.333333333333
scalar Network900.node680 	qrecord_time 	12361.618021562
scalar Network900.node680 	discovery_resolution_rate 	0
scalar Network900.node550 	rate_of_requesters 	1
scalar Network900.node550 	number_of_resources 	49500
scalar Network900.node550 	time_period 	2
scalar Network900.node550 	number_of_messages 	0
scalar Network900.node550 	discovery_latency 	6366
scalar Network900.node550 	number_of_desired_resources 	20
scalar Network900.node550 	query_homogenity_rate 	33.333333333333
scalar Network900.node550 	qrecord_time 	12377.562371001
scalar Network900.node550 	discovery_resolution_rate 	0
scalar Network900.node50 	rate_of_requesters 	1
scalar Network900.node50 	number_of_resources 	49500
scalar Network900.node50 	time_period 	2
scalar Network900.node50 	number_of_messages 	2
scalar Network900.node50 	discovery_latency 	6186
scalar Network900.node50 	number_of_desired_resources 	20
scalar Network900.node50 	query_homogenity_rate 	33.333333333333
scalar Network900.node50 	qrecord_time 	12409.307163096
scalar Network900.node50 	discovery_resolution_rate 	0
scalar Network900.node880 	rate_of_requesters 	1
scalar Network900.node880 	number_of_resources 	49500
scalar Network900.node880 	time_period 	2
scalar Network900.node880 	number_of_messages 	2
scalar Network900.node880 	discovery_latency 	6462
scalar Network900.node880 	number_of_desired_resources 	20
scalar Network900.node880 	query_homogenity_rate 	33.333333333333
scalar Network900.node880 	qrecord_time 	12416.268238563
scalar Network900.node880 	discovery_resolution_rate 	0
scalar Network900.node290 	rate_of_requesters 	1
scalar Network900.node290 	number_of_resources 	49500
scalar Network900.node290 	time_period 	2
scalar Network900.node290 	number_of_messages 	2
scalar Network900.node290 	discovery_latency 	6186
scalar Network900.node290 	number_of_desired_resources 	20
scalar Network900.node290 	query_homogenity_rate 	33.333333333333
scalar Network900.node290 	qrecord_time 	12486.275944515
scalar Network900.node290 	discovery_resolution_rate 	0
scalar Network900.node790 	rate_of_requesters 	1
scalar Network900.node790 	number_of_resources 	49500
scalar Network900.node790 	time_period 	3
scalar Network900.node790 	number_of_messages 	0
scalar Network900.node790 	discovery_latency 	6186
scalar Network900.node790 	number_of_desired_resources 	20
scalar Network900.node790 	query_homogenity_rate 	33.333333333333
scalar Network900.node790 	qrecord_time 	12503.71400866
scalar Network900.node790 	discovery_resolution_rate 	0
scalar Network900.node190 	rate_of_requesters 	1
scalar Network900.node190 	number_of_resources 	49500
scalar Network900.node190 	time_period 	2
scalar Network900.node190 	number_of_messages 	2
scalar Network900.node190 	discovery_latency 	6450
scalar Network900.node190 	number_of_desired_resources 	20
scalar Network900.node190 	query_homogenity_rate 	33.333333333333
scalar Network900.node190 	qrecord_time 	12673.812678993
scalar Network900.node190 	discovery_resolution_rate 	0
scalar Network900.node80 	rate_of_requesters 	1
scalar Network900.node80 	number_of_resources 	49500
scalar Network900.node80 	time_period 	2
scalar Network900.node80 	number_of_messages 	2
scalar Network900.node80 	discovery_latency 	6198
scalar Network900.node80 	number_of_desired_resources 	20
scalar Network900.node80 	query_homogenity_rate 	33.333333333333
scalar Network900.node80 	qrecord_time 	12753.310357114
scalar Network900.node80 	discovery_resolution_rate 	0
scalar Network900.node720 	rate_of_requesters 	1
scalar Network900.node720 	number_of_resources 	49500
scalar Network900.node720 	time_period 	5
scalar Network900.node720 	number_of_messages 	2
scalar Network900.node720 	discovery_latency 	6222
scalar Network900.node720 	number_of_desired_resources 	20
scalar Network900.node720 	query_homogenity_rate 	33.333333333333
scalar Network900.node720 	qrecord_time 	12775.075034267
scalar Network900.node720 	discovery_resolution_rate 	0
scalar Network900.node800 	rate_of_requesters 	1
scalar Network900.node800 	number_of_resources 	49500
scalar Network900.node800 	time_period 	2
scalar Network900.node800 	number_of_messages 	2
scalar Network900.node800 	discovery_latency 	6402
scalar Network900.node800 	number_of_desired_resources 	20
scalar Network900.node800 	query_homogenity_rate 	33.333333333333
scalar Network900.node800 	qrecord_time 	12834.012303203
scalar Network900.node800 	discovery_resolution_rate 	0
scalar Network900.node520 	rate_of_requesters 	1
scalar Network900.node520 	number_of_resources 	49500
scalar Network900.node520 	time_period 	2
scalar Network900.node520 	number_of_messages 	2
scalar Network900.node520 	discovery_latency 	6282
scalar Network900.node520 	number_of_desired_resources 	20
scalar Network900.node520 	query_homogenity_rate 	33.333333333333
scalar Network900.node520 	qrecord_time 	12836.515666161
scalar Network900.node520 	discovery_resolution_rate 	0
scalar Network900.node450 	rate_of_requesters 	1
scalar Network900.node450 	number_of_resources 	49500
scalar Network900.node450 	time_period 	2
scalar Network900.node450 	number_of_messages 	2
scalar Network900.node450 	discovery_latency 	6570
scalar Network900.node450 	number_of_desired_resources 	20
scalar Network900.node450 	query_homogenity_rate 	33.333333333333
scalar Network900.node450 	qrecord_time 	12971.430245976
scalar Network900.node450 	discovery_resolution_rate 	0
scalar Network900.node60 	rate_of_requesters 	1
scalar Network900.node60 	number_of_resources 	49500
scalar Network900.node60 	time_period 	3
scalar Network900.node60 	number_of_messages 	2
scalar Network900.node60 	discovery_latency 	6390
scalar Network900.node60 	number_of_desired_resources 	20
scalar Network900.node60 	query_homogenity_rate 	33.333333333333
scalar Network900.node60 	qrecord_time 	13038.137826788
scalar Network900.node60 	discovery_resolution_rate 	0
scalar Network900.node20 	rate_of_requesters 	1
scalar Network900.node20 	number_of_resources 	49500
scalar Network900.node20 	time_period 	3
scalar Network900.node20 	number_of_messages 	2
scalar Network900.node20 	discovery_latency 	6246
scalar Network900.node20 	number_of_desired_resources 	20
scalar Network900.node20 	query_homogenity_rate 	33.333333333333
scalar Network900.node20 	qrecord_time 	13039.338917425
scalar Network900.node20 	discovery_resolution_rate 	0
scalar Network900.node420 	rate_of_requesters 	1
scalar Network900.node420 	number_of_resources 	49500
scalar Network900.node420 	time_period 	2
scalar Network900.node420 	number_of_messages 	2
scalar Network900.node420 	discovery_latency 	6318
scalar Network900.node420 	number_of_desired_resources 	20
scalar Network900.node420 	query_homogenity_rate 	33.333333333333
scalar Network900.node420 	qrecord_time 	13057.735246353
scalar Network900.node420 	discovery_resolution_rate 	0
scalar Network900.node770 	rate_of_requesters 	1
scalar Network900.node770 	number_of_resources 	49500
scalar Network900.node770 	time_period 	4
scalar Network900.node770 	number_of_messages 	2
scalar Network900.node770 	discovery_latency 	6330
scalar Network900.node770 	number_of_desired_resources 	20
scalar Network900.node770 	query_homogenity_rate 	33.333333333333
scalar Network900.node770 	qrecord_time 	13094.952275102
scalar Network900.node770 	discovery_resolution_rate 	0
scalar Network900.node750 	rate_of_requesters 	1
scalar Network900.node750 	number_of_resources 	49500
scalar Network900.node750 	time_period 	2
scalar Network900.node750 	number_of_messages 	2
scalar Network900.node750 	discovery_latency 	6270
scalar Network900.node750 	number_of_desired_resources 	20
scalar Network900.node750 	query_homogenity_rate 	33.333333333333
scalar Network900.node750 	qrecord_time 	13122.533316351
scalar Network900.node750 	discovery_resolution_rate 	0
scalar Network900.node510 	rate_of_requesters 	1
scalar Network900.node510 	number_of_resources 	49500
scalar Network900.node510 	time_period 	2
scalar Network900.node510 	number_of_messages 	2
scalar Network900.node510 	discovery_latency 	6546
scalar Network900.node510 	number_of_desired_resources 	20
scalar Network900.node510 	query_homogenity_rate 	33.333333333333
scalar Network900.node510 	qrecord_time 	13138.197106454
scalar Network900.node510 	discovery_resolution_rate 	0
scalar Network900.node830 	rate_of_requesters 	1
scalar Network900.node830 	number_of_resources 	49500
scalar Network900.node830 	time_period 	2
scalar Network900.node830 	number_of_messages 	2
scalar Network900.node830 	discovery_latency 	6246
scalar Network900.node830 	number_of_desired_resources 	20
scalar Network900.node830 	query_homogenity_rate 	33.333333333333
scalar Network900.node830 	qrecord_time 	13156.745300293
scalar Network900.node830 	discovery_resolution_rate 	0
scalar Network900.node130 	rate_of_requesters 	1
scalar Network900.node130 	number_of_resources 	49500
scalar Network900.node130 	time_period 	2
scalar Network900.node130 	number_of_messages 	0
scalar Network900.node130 	discovery_latency 	6258
scalar Network900.node130 	number_of_desired_resources 	20
scalar Network900.node130 	query_homogenity_rate 	33.333333333333
scalar Network900.node130 	qrecord_time 	13288.179029043
scalar Network900.node130 	discovery_resolution_rate 	0
scalar Network900.node200 	rate_of_requesters 	1
scalar Network900.node200 	number_of_resources 	49500
scalar Network900.node200 	time_period 	2
scalar Network900.node200 	number_of_messages 	2
scalar Network900.node200 	discovery_latency 	6210
scalar Network900.node200 	number_of_desired_resources 	20
scalar Network900.node200 	query_homogenity_rate 	33.333333333333
scalar Network900.node200 	qrecord_time 	13305.28790708
scalar Network900.node200 	discovery_resolution_rate 	0
scalar Network900.node790 	rate_of_requesters 	1
scalar Network900.node790 	number_of_resources 	49500
scalar Network900.node790 	time_period 	4
scalar Network900.node790 	number_of_messages 	0
scalar Network900.node790 	discovery_latency 	6306
scalar Network900.node790 	number_of_desired_resources 	20
scalar Network900.node790 	query_homogenity_rate 	33.333333333333
scalar Network900.node790 	qrecord_time 	13328.009945191
scalar Network900.node790 	discovery_resolution_rate 	0
scalar Network900.node730 	rate_of_requesters 	1
scalar Network900.node730 	number_of_resources 	49500
scalar Network900.node730 	time_period 	2
scalar Network900.node730 	number_of_messages 	2
scalar Network900.node730 	discovery_latency 	6330
scalar Network900.node730 	number_of_desired_resources 	20
scalar Network900.node730 	query_homogenity_rate 	33.333333333333
scalar Network900.node730 	qrecord_time 	13369.405584563
scalar Network900.node730 	discovery_resolution_rate 	0
scalar Network900.node160 	rate_of_requesters 	1
scalar Network900.node160 	number_of_resources 	49500
scalar Network900.node160 	time_period 	2
scalar Network900.node160 	number_of_messages 	2
scalar Network900.node160 	discovery_latency 	6330
scalar Network900.node160 	number_of_desired_resources 	20
scalar Network900.node160 	query_homogenity_rate 	33.333333333333
scalar Network900.node160 	qrecord_time 	13487.114560686
scalar Network900.node160 	discovery_resolution_rate 	0
scalar Network900.node790 	rate_of_requesters 	1
scalar Network900.node790 	number_of_resources 	49500
scalar Network900.node790 	time_period 	5
scalar Network900.node790 	number_of_messages 	0
scalar Network900.node790 	discovery_latency 	6510
scalar Network900.node790 	number_of_desired_resources 	20
scalar Network900.node790 	query_homogenity_rate 	33.333333333333
scalar Network900.node790 	qrecord_time 	13550.50850389
scalar Network900.node790 	discovery_resolution_rate 	0
scalar Network900.node350 	rate_of_requesters 	1
scalar Network900.node350 	number_of_resources 	49500
scalar Network900.node350 	time_period 	2
scalar Network900.node350 	number_of_messages 	2
scalar Network900.node350 	discovery_latency 	6390
scalar Network900.node350 	number_of_desired_resources 	20
scalar Network900.node350 	query_homogenity_rate 	33.333333333333
scalar Network900.node350 	qrecord_time 	13556.657066329
scalar Network900.node350 	discovery_resolution_rate 	0
scalar Network900.node70 	rate_of_requesters 	1
scalar Network900.node70 	number_of_resources 	49500
scalar Network900.node70 	time_period 	2
scalar Network900.node70 	number_of_messages 	2
scalar Network900.node70 	discovery_latency 	6222
scalar Network900.node70 	number_of_desired_resources 	20
scalar Network900.node70 	query_homogenity_rate 	33.333333333333
scalar Network900.node70 	qrecord_time 	13641.315492841
scalar Network900.node70 	discovery_resolution_rate 	0
scalar Network900.node420 	rate_of_requesters 	1
scalar Network900.node420 	number_of_resources 	49500
scalar Network900.node420 	time_period 	3
scalar Network900.node420 	number_of_messages 	2
scalar Network900.node420 	discovery_latency 	6438
scalar Network900.node420 	number_of_desired_resources 	20
scalar Network900.node420 	query_homogenity_rate 	33.333333333333
scalar Network900.node420 	qrecord_time 	13642.540799468
scalar Network900.node420 	discovery_resolution_rate 	0
scalar Network900.node330 	rate_of_requesters 	1
scalar Network900.node330 	number_of_resources 	49500
scalar Network900.node330 	time_period 	2
scalar Network900.node330 	number_of_messages 	2
scalar Network900.node330 	discovery_latency 	6246
scalar Network900.node330 	number_of_desired_resources 	20
scalar Network900.node330 	query_homogenity_rate 	33.333333333333
scalar Network900.node330 	qrecord_time 	13771.842046541
scalar Network900.node330 	discovery_resolution_rate 	0
scalar Network900.node760 	rate_of_requesters 	1
scalar Network900.node760 	number_of_resources 	49500
scalar Network900.node760 	time_period 	2
scalar Network900.node760 	number_of_messages 	2
scalar Network900.node760 	discovery_latency 	6198
scalar Network900.node760 	number_of_desired_resources 	20
scalar Network900.node760 	query_homogenity_rate 	33.333333333333
scalar Network900.node760 	qrecord_time 	13783.541827359
scalar Network900.node760 	discovery_resolution_rate 	0
scalar Network900.node480 	rate_of_requesters 	1
scalar Network900.node480 	number_of_resources 	49500
scalar Network900.node480 	time_period 	3
scalar Network900.node480 	number_of_messages 	2
scalar Network900.node480 	discovery_latency 	6438
scalar Network900.node480 	number_of_desired_resources 	20
scalar Network900.node480 	query_homogenity_rate 	33.333333333333
scalar Network900.node480 	qrecord_time 	13787.354232196
scalar Network900.node480 	discovery_resolution_rate 	0
scalar Network900.node420 	rate_of_requesters 	1
scalar Network900.node420 	number_of_resources 	49500
scalar Network900.node420 	time_period 	4
scalar Network900.node420 	number_of_messages 	2
scalar Network900.node420 	discovery_latency 	6390
scalar Network900.node420 	number_of_desired_resources 	20
scalar Network900.node420 	query_homogenity_rate 	33.333333333333
scalar Network900.node420 	qrecord_time 	13811.259673291
scalar Network900.node420 	discovery_resolution_rate 	0
scalar Network900.node310 	rate_of_requesters 	1
scalar Network900.node310 	number_of_resources 	49500
scalar Network900.node310 	time_period 	2
scalar Network900.node310 	number_of_messages 	2
scalar Network900.node310 	discovery_latency 	6438
scalar Network900.node310 	number_of_desired_resources 	20
scalar Network900.node310 	query_homogenity_rate 	33.333333333333
scalar Network900.node310 	qrecord_time 	13822.989641011
scalar Network900.node310 	discovery_resolution_rate 	0
scalar Network900.node460 	rate_of_requesters 	1
scalar Network900.node460 	number_of_resources 	49500
scalar Network900.node460 	time_period 	3
scalar Network900.node460 	number_of_messages 	2
scalar Network900.node460 	discovery_latency 	6390
scalar Network900.node460 	number_of_desired_resources 	20
scalar Network900.node460 	query_homogenity_rate 	33.333333333333
scalar Network900.node460 	qrecord_time 	13846.769949184
scalar Network900.node460 	discovery_resolution_rate 	0
scalar Network900.node820 	rate_of_requesters 	1
scalar Network900.node820 	number_of_resources 	49500
scalar Network900.node820 	time_period 	2
scalar Network900.node820 	number_of_messages 	2
scalar Network900.node820 	discovery_latency 	6474
scalar Network900.node820 	number_of_desired_resources 	20
scalar Network900.node820 	query_homogenity_rate 	33.333333333333
scalar Network900.node820 	qrecord_time 	13994.493222016
scalar Network900.node820 	discovery_resolution_rate 	0
scalar Network900.node820 	rate_of_requesters 	1
scalar Network900.node820 	number_of_resources 	49500
scalar Network900.node820 	time_period 	3
scalar Network900.node820 	number_of_messages 	2
scalar Network900.node820 	discovery_latency 	6330
scalar Network900.node820 	number_of_desired_resources 	20
scalar Network900.node820 	query_homogenity_rate 	33.333333333333
scalar Network900.node820 	qrecord_time 	14008.61010063
scalar Network900.node820 	discovery_resolution_rate 	0
scalar Network900.node180 	rate_of_requesters 	1
scalar Network900.node180 	number_of_resources 	49500
scalar Network900.node180 	time_period 	2
scalar Network900.node180 	number_of_messages 	2
scalar Network900.node180 	discovery_latency 	6198
scalar Network900.node180 	number_of_desired_resources 	20
scalar Network900.node180 	query_homogenity_rate 	33.333333333333
scalar Network900.node180 	qrecord_time 	14011.33435006
scalar Network900.node180 	discovery_resolution_rate 	0
scalar Network900.node470 	rate_of_requesters 	1
scalar Network900.node470 	number_of_resources 	49500
scalar Network900.node470 	time_period 	2
scalar Network900.node470 	number_of_messages 	0
scalar Network900.node470 	discovery_latency 	6342
scalar Network900.node470 	number_of_desired_resources 	20
scalar Network900.node470 	query_homogenity_rate 	33.333333333333
scalar Network900.node470 	qrecord_time 	14051.133424027
scalar Network900.node470 	discovery_resolution_rate 	0
scalar Network900.node550 	rate_of_requesters 	1
scalar Network900.node550 	number_of_resources 	49500
scalar Network900.node550 	time_period 	3
scalar Network900.node550 	number_of_messages 	0
scalar Network900.node550 	discovery_latency 	6342
scalar Network900.node550 	number_of_desired_resources 	20
scalar Network900.node550 	query_homogenity_rate 	33.333333333333
scalar Network900.node550 	qrecord_time 	14058.154181642
scalar Network900.node550 	discovery_resolution_rate 	0
scalar Network900.node810 	rate_of_requesters 	1
scalar Network900.node810 	number_of_resources 	49500
scalar Network900.node810 	time_period 	2
scalar Network900.node810 	number_of_messages 	0
scalar Network900.node810 	discovery_latency 	6354
scalar Network900.node810 	number_of_desired_resources 	20
scalar Network900.node810 	query_homogenity_rate 	33.333333333333
scalar Network900.node810 	qrecord_time 	14069.01852916
scalar Network900.node810 	discovery_resolution_rate 	0
scalar Network900.node830 	rate_of_requesters 	1
scalar Network900.node830 	number_of_resources 	49500
scalar Network900.node830 	time_period 	3
scalar Network900.node830 	number_of_messages 	2
scalar Network900.node830 	discovery_latency 	6282
scalar Network900.node830 	number_of_desired_resources 	20
scalar Network900.node830 	query_homogenity_rate 	33.333333333333
scalar Network900.node830 	qrecord_time 	14179.621795244
scalar Network900.node830 	discovery_resolution_rate 	0
scalar Network900.node890 	rate_of_requesters 	1
scalar Network900.node890 	number_of_resources 	49500
scalar Network900.node890 	time_period 	2
scalar Network900.node890 	number_of_messages 	2
scalar Network900.node890 	discovery_latency 	6378
scalar Network900.node890 	number_of_desired_resources 	20
scalar Network900.node890 	query_homogenity_rate 	33.333333333333
scalar Network900.node890 	qrecord_time 	14195.871410703
scalar Network900.node890 	discovery_resolution_rate 	0
scalar Network900.node780 	rate_of_requesters 	1
scalar Network900.node780 	number_of_resources 	49500
scalar Network900.node780 	time_period 	2
scalar Network900.node780 	number_of_messages 	2
scalar Network900.node780 	discovery_latency 	6210
scalar Network900.node780 	number_of_desired_resources 	20
scalar Network900.node780 	query_homogenity_rate 	33.333333333333
scalar Network900.node780 	qrecord_time 	14200.368019972
scalar Network900.node780 	discovery_resolution_rate 	0
scalar Network900.node610 	rate_of_requesters 	1
scalar Network900.node610 	number_of_resources 	49500
scalar Network900.node610 	time_period 	2
scalar Network900.node610 	number_of_messages 	2
scalar Network900.node610 	discovery_latency 	6222
scalar Network900.node610 	number_of_desired_resources 	20
scalar Network900.node610 	query_homogenity_rate 	33.333333333333
scalar Network900.node610 	qrecord_time 	14213.451942458
scalar Network900.node610 	discovery_resolution_rate 	0
scalar Network900.node660 	rate_of_requesters 	1
scalar Network900.node660 	number_of_resources 	49500
scalar Network900.node660 	time_period 	2
scalar Network900.node660 	number_of_messages 	2
scalar Network900.node660 	discovery_latency 	6366
scalar Network900.node660 	number_of_desired_resources 	20
scalar Network900.node660 	query_homogenity_rate 	33.333333333333
scalar Network900.node660 	qrecord_time 	14216.730541437
scalar Network900.node660 	discovery_resolution_rate 	0
scalar Network900.node100 	rate_of_requesters 	1
scalar Network900.node100 	number_of_resources 	49500
scalar Network900.node100 	time_period 	2
scalar Network900.node100 	number_of_messages 	2
scalar Network900.node100 	discovery_latency 	6198
scalar Network900.node100 	number_of_desired_resources 	20
scalar Network900.node100 	query_homogenity_rate 	33.333333333333
scalar Network900.node100 	qrecord_time 	14218.397415895
scalar Network900.node100 	discovery_resolution_rate 	0
scalar Network900.node80 	rate_of_requesters 	1
scalar Network900.node80 	number_of_resources 	49500
scalar Network900.node80 	time_period 	3
scalar Network900.node80 	number_of_messages 	2
scalar Network900.node80 	discovery_latency 	6486
scalar Network900.node80 	number_of_desired_resources 	20
scalar Network900.node80 	query_homogenity_rate 	33.333333333333
scalar Network900.node80 	qrecord_time 	14221.789174126
scalar Network900.node80 	discovery_resolution_rate 	0
scalar Network900.node150 	rate_of_requesters 	1
scalar Network900.node150 	number_of_resources 	49500
scalar Network900.node150 	time_period 	3
scalar Network900.node150 	number_of_messages 	2
[...]
scalar Network900.node500 	qrecord_time 	53087.49382983
scalar Network900.node500 	discovery_resolution_rate 	66.666666666667
scalar Network900.node290 	rate_of_requesters 	1
scalar Network900.node290 	number_of_resources 	49500
scalar Network900.node290 	time_period 	10
scalar Network900.node290 	number_of_messages 	31
scalar Network900.node290 	discovery_latency 	5076
scalar Network900.node290 	number_of_desired_resources 	20
scalar Network900.node290 	query_homogenity_rate 	33.333333333333
scalar Network900.node290 	qrecord_time 	53119.339798058
scalar Network900.node290 	discovery_resolution_rate 	66.666666666667
scalar Network900.node710 	rate_of_requesters 	1
scalar Network900.node710 	number_of_resources 	49500
scalar Network900.node710 	time_period 	10
scalar Network900.node710 	number_of_messages 	24
scalar Network900.node710 	discovery_latency 	5040
scalar Network900.node710 	number_of_desired_resources 	20
scalar Network900.node710 	query_homogenity_rate 	33.333333333333
scalar Network900.node710 	qrecord_time 	53187.794367529
scalar Network900.node710 	discovery_resolution_rate 	66.666666666667
scalar Network900.node220 	rate_of_requesters 	1
scalar Network900.node220 	number_of_resources 	49500
scalar Network900.node220 	time_period 	9
scalar Network900.node220 	number_of_messages 	55
scalar Network900.node220 	discovery_latency 	5196
scalar Network900.node220 	number_of_desired_resources 	20
scalar Network900.node220 	query_homogenity_rate 	33.333333333333
scalar Network900.node220 	qrecord_time 	53364.765540499
scalar Network900.node220 	discovery_resolution_rate 	66.666666666667
scalar Network900.node520 	rate_of_requesters 	1
scalar Network900.node520 	number_of_resources 	49500
scalar Network900.node520 	time_period 	10
scalar Network900.node520 	number_of_messages 	11
scalar Network900.node520 	discovery_latency 	5232
scalar Network900.node520 	number_of_desired_resources 	20
scalar Network900.node520 	query_homogenity_rate 	33.333333333333
scalar Network900.node520 	qrecord_time 	53593.374760234
scalar Network900.node520 	discovery_resolution_rate 	66.666666666667
scalar Network900.node140 	rate_of_requesters 	1
scalar Network900.node140 	number_of_resources 	49500
scalar Network900.node140 	time_period 	9
scalar Network900.node140 	number_of_messages 	38
scalar Network900.node140 	discovery_latency 	4704
scalar Network900.node140 	number_of_desired_resources 	20
scalar Network900.node140 	query_homogenity_rate 	33.333333333333
scalar Network900.node140 	qrecord_time 	54135.554275577
scalar Network900.node140 	discovery_resolution_rate 	66.666666666667
scalar Network900.node780 	rate_of_requesters 	1
scalar Network900.node780 	number_of_resources 	49500
scalar Network900.node780 	time_period 	9
scalar Network900.node780 	number_of_messages 	23
scalar Network900.node780 	discovery_latency 	4848
scalar Network900.node780 	number_of_desired_resources 	20
scalar Network900.node780 	query_homogenity_rate 	33.333333333333
scalar Network900.node780 	qrecord_time 	54138.254208011
scalar Network900.node780 	discovery_resolution_rate 	66.666666666667
scalar Network900.node500 	rate_of_requesters 	1
scalar Network900.node500 	number_of_resources 	49500
scalar Network900.node500 	time_period 	6
scalar Network900.node500 	number_of_messages 	73
scalar Network900.node500 	discovery_latency 	5256
scalar Network900.node500 	number_of_desired_resources 	20
scalar Network900.node500 	query_homogenity_rate 	33.333333333333
scalar Network900.node500 	qrecord_time 	54139.03937289
scalar Network900.node500 	discovery_resolution_rate 	66.666666666667
scalar Network900.node500 	rate_of_requesters 	1
scalar Network900.node500 	number_of_resources 	49500
scalar Network900.node500 	time_period 	7
scalar Network900.node500 	number_of_messages 	30
scalar Network900.node500 	discovery_latency 	4992
scalar Network900.node500 	number_of_desired_resources 	20
scalar Network900.node500 	query_homogenity_rate 	33.333333333333
scalar Network900.node500 	qrecord_time 	54450.621355723
scalar Network900.node500 	discovery_resolution_rate 	66.666666666667
scalar Network900.node240 	rate_of_requesters 	1
scalar Network900.node240 	number_of_resources 	49500
scalar Network900.node240 	time_period 	9
scalar Network900.node240 	number_of_messages 	31
scalar Network900.node240 	discovery_latency 	4884
scalar Network900.node240 	number_of_desired_resources 	20
scalar Network900.node240 	query_homogenity_rate 	33.333333333333
scalar Network900.node240 	qrecord_time 	54680.767209146
scalar Network900.node240 	discovery_resolution_rate 	66.666666666667
scalar Network900.node240 	rate_of_requesters 	1
scalar Network900.node240 	number_of_resources 	49500
scalar Network900.node240 	time_period 	10
scalar Network900.node240 	number_of_messages 	22
scalar Network900.node240 	discovery_latency 	4848
scalar Network900.node240 	number_of_desired_resources 	20
scalar Network900.node240 	query_homogenity_rate 	33.333333333333
scalar Network900.node240 	qrecord_time 	55169.417084053
scalar Network900.node240 	discovery_resolution_rate 	66.666666666667
scalar Network900.node840 	rate_of_requesters 	1
scalar Network900.node840 	number_of_resources 	49500
scalar Network900.node840 	time_period 	8
scalar Network900.node840 	number_of_messages 	72
scalar Network900.node840 	discovery_latency 	4860
scalar Network900.node840 	number_of_desired_resources 	20
scalar Network900.node840 	query_homogenity_rate 	33.333333333333
scalar Network900.node840 	qrecord_time 	55188.751782147
scalar Network900.node840 	discovery_resolution_rate 	66.666666666667
scalar Network900.node560 	rate_of_requesters 	1
scalar Network900.node560 	number_of_resources 	49500
scalar Network900.node560 	time_period 	7
scalar Network900.node560 	number_of_messages 	51
scalar Network900.node560 	discovery_latency 	4932
scalar Network900.node560 	number_of_desired_resources 	20
scalar Network900.node560 	query_homogenity_rate 	33.333333333333
scalar Network900.node560 	qrecord_time 	55702.698628543
scalar Network900.node560 	discovery_resolution_rate 	66.666666666667
scalar Network900.node750 	rate_of_requesters 	1
scalar Network900.node750 	number_of_resources 	49500
scalar Network900.node750 	time_period 	10
scalar Network900.node750 	number_of_messages 	18
scalar Network900.node750 	discovery_latency 	5952
scalar Network900.node750 	number_of_desired_resources 	20
scalar Network900.node750 	query_homogenity_rate 	33.333333333333
scalar Network900.node750 	qrecord_time 	56334.469739798
scalar Network900.node750 	discovery_resolution_rate 	33.333333333333
scalar Network900.node70 	rate_of_requesters 	1
scalar Network900.node70 	number_of_resources 	49500
scalar Network900.node70 	time_period 	7
scalar Network900.node70 	number_of_messages 	58
scalar Network900.node70 	discovery_latency 	4752
scalar Network900.node70 	number_of_desired_resources 	20
scalar Network900.node70 	query_homogenity_rate 	33.333333333333
scalar Network900.node70 	qrecord_time 	56398.08961262
scalar Network900.node70 	discovery_resolution_rate 	66.666666666667
scalar Network900.node540 	rate_of_requesters 	1
scalar Network900.node540 	number_of_resources 	49500
scalar Network900.node540 	time_period 	9
scalar Network900.node540 	number_of_messages 	15
scalar Network900.node540 	discovery_latency 	5952
scalar Network900.node540 	number_of_desired_resources 	20
scalar Network900.node540 	query_homogenity_rate 	33.333333333333
scalar Network900.node540 	qrecord_time 	56472.893047795
scalar Network900.node540 	discovery_resolution_rate 	33.333333333333
scalar Network900.node30 	rate_of_requesters 	1
scalar Network900.node30 	number_of_resources 	49500
scalar Network900.node30 	time_period 	9
scalar Network900.node30 	number_of_messages 	15
scalar Network900.node30 	discovery_latency 	5892
scalar Network900.node30 	number_of_desired_resources 	20
scalar Network900.node30 	query_homogenity_rate 	33.333333333333
scalar Network900.node30 	qrecord_time 	56626.554541304
scalar Network900.node30 	discovery_resolution_rate 	33.333333333333
scalar Network900.node410 	rate_of_requesters 	1
scalar Network900.node410 	number_of_resources 	49500
scalar Network900.node410 	time_period 	9
scalar Network900.node410 	number_of_messages 	30
scalar Network900.node410 	discovery_latency 	4776
scalar Network900.node410 	number_of_desired_resources 	20
scalar Network900.node410 	query_homogenity_rate 	33.333333333333
scalar Network900.node410 	qrecord_time 	56878.989913387
scalar Network900.node410 	discovery_resolution_rate 	66.666666666667
scalar Network900.node30 	rate_of_requesters 	1
scalar Network900.node30 	number_of_resources 	49500
scalar Network900.node30 	time_period 	10
scalar Network900.node30 	number_of_messages 	11
scalar Network900.node30 	discovery_latency 	5820
scalar Network900.node30 	number_of_desired_resources 	20
scalar Network900.node30 	query_homogenity_rate 	33.333333333333
scalar Network900.node30 	qrecord_time 	56894.124013067
scalar Network900.node30 	discovery_resolution_rate 	33.333333333333
scalar Network900.node540 	rate_of_requesters 	1
scalar Network900.node540 	number_of_resources 	49500
scalar Network900.node540 	time_period 	10
scalar Network900.node540 	number_of_messages 	15
scalar Network900.node540 	discovery_latency 	5952
scalar Network900.node540 	number_of_desired_resources 	20
scalar Network900.node540 	query_homogenity_rate 	33.333333333333
scalar Network900.node540 	qrecord_time 	57124.176238125
scalar Network900.node540 	discovery_resolution_rate 	33.333333333333
scalar Network900.node70 	rate_of_requesters 	1
scalar Network900.node70 	number_of_resources 	49500
scalar Network900.node70 	time_period 	6
scalar Network900.node70 	number_of_messages 	20
scalar Network900.node70 	discovery_latency 	5892
scalar Network900.node70 	number_of_desired_resources 	20
scalar Network900.node70 	query_homogenity_rate 	33.333333333333
scalar Network900.node70 	qrecord_time 	57206.00810109
scalar Network900.node70 	discovery_resolution_rate 	33.333333333333
scalar Network900.node560 	rate_of_requesters 	1
scalar Network900.node560 	number_of_resources 	49500
scalar Network900.node560 	time_period 	10
scalar Network900.node560 	number_of_messages 	39
scalar Network900.node560 	discovery_latency 	492
scalar Network900.node560 	number_of_desired_resources 	20
scalar Network900.node560 	query_homogenity_rate 	33.333333333333
scalar Network900.node560 	qrecord_time 	57724.538038959
scalar Network900.node560 	discovery_resolution_rate 	100
scalar Network900.node500 	rate_of_requesters 	1
scalar Network900.node500 	number_of_resources 	49500
scalar Network900.node500 	time_period 	8
scalar Network900.node500 	number_of_messages 	27
scalar Network900.node500 	discovery_latency 	5964
scalar Network900.node500 	number_of_desired_resources 	20
scalar Network900.node500 	query_homogenity_rate 	33.333333333333
scalar Network900.node500 	qrecord_time 	58248.294254571
scalar Network900.node500 	discovery_resolution_rate 	33.333333333333
scalar Network900.node560 	rate_of_requesters 	1
scalar Network900.node560 	number_of_resources 	49500
scalar Network900.node560 	time_period 	8
scalar Network900.node560 	number_of_messages 	12
scalar Network900.node560 	discovery_latency 	5988
scalar Network900.node560 	number_of_desired_resources 	20
scalar Network900.node560 	query_homogenity_rate 	33.333333333333
scalar Network900.node560 	qrecord_time 	58292.869026266
scalar Network900.node560 	discovery_resolution_rate 	33.333333333333
scalar Network900.node500 	rate_of_requesters 	1
scalar Network900.node500 	number_of_resources 	49500
scalar Network900.node500 	time_period 	9
scalar Network900.node500 	number_of_messages 	29
scalar Network900.node500 	discovery_latency 	4800
scalar Network900.node500 	number_of_desired_resources 	20
scalar Network900.node500 	query_homogenity_rate 	33.333333333333
scalar Network900.node500 	qrecord_time 	58523.610187407
scalar Network900.node500 	discovery_resolution_rate 	66.666666666667
scalar Network900.node220 	rate_of_requesters 	1
scalar Network900.node220 	number_of_resources 	49500
scalar Network900.node220 	time_period 	10
scalar Network900.node220 	number_of_messages 	7
scalar Network900.node220 	discovery_latency 	5796
scalar Network900.node220 	number_of_desired_resources 	20
scalar Network900.node220 	query_homogenity_rate 	33.333333333333
scalar Network900.node220 	qrecord_time 	58534.209450108
scalar Network900.node220 	discovery_resolution_rate 	33.333333333333
scalar Network900.node410 	rate_of_requesters 	1
scalar Network900.node410 	number_of_resources 	49500
scalar Network900.node410 	time_period 	10
scalar Network900.node410 	number_of_messages 	210
scalar Network900.node410 	discovery_latency 	4872
scalar Network900.node410 	number_of_desired_resources 	20
scalar Network900.node410 	query_homogenity_rate 	33.333333333333
scalar Network900.node410 	qrecord_time 	58597.703767683
scalar Network900.node410 	discovery_resolution_rate 	83.333333333333
scalar Network900.node560 	rate_of_requesters 	1
scalar Network900.node560 	number_of_resources 	49500
scalar Network900.node560 	time_period 	9
scalar Network900.node560 	number_of_messages 	41
scalar Network900.node560 	discovery_latency 	4812
scalar Network900.node560 	number_of_desired_resources 	20
scalar Network900.node560 	query_homogenity_rate 	33.333333333333
scalar Network900.node560 	qrecord_time 	58846.175850526
scalar Network900.node560 	discovery_resolution_rate 	66.666666666667
scalar Network900.node70 	rate_of_requesters 	1
scalar Network900.node70 	number_of_resources 	49500
scalar Network900.node70 	time_period 	8
scalar Network900.node70 	number_of_messages 	14
scalar Network900.node70 	discovery_latency 	4968
scalar Network900.node70 	number_of_desired_resources 	20
scalar Network900.node70 	query_homogenity_rate 	33.333333333333
scalar Network900.node70 	qrecord_time 	59541.689259036
scalar Network900.node70 	discovery_resolution_rate 	66.666666666667
scalar Network900.node140 	rate_of_requesters 	1
scalar Network900.node140 	number_of_resources 	49500
scalar Network900.node140 	time_period 	10
scalar Network900.node140 	number_of_messages 	42
scalar Network900.node140 	discovery_latency 	624
scalar Network900.node140 	number_of_desired_resources 	20
scalar Network900.node140 	query_homogenity_rate 	33.333333333333
scalar Network900.node140 	qrecord_time 	59693.12223521
scalar Network900.node140 	discovery_resolution_rate 	100
scalar Network900.node70 	rate_of_requesters 	1
scalar Network900.node70 	number_of_resources 	49500
scalar Network900.node70 	time_period 	9
scalar Network900.node70 	number_of_messages 	14
scalar Network900.node70 	discovery_latency 	4932
scalar Network900.node70 	number_of_desired_resources 	20
scalar Network900.node70 	query_homogenity_rate 	33.333333333333
scalar Network900.node70 	qrecord_time 	59921.73578191
scalar Network900.node70 	discovery_resolution_rate 	66.666666666667
scalar Network900.node130 	rate_of_requesters 	1
scalar Network900.node130 	number_of_resources 	49500
scalar Network900.node130 	time_period 	8
scalar Network900.node130 	number_of_messages 	14
scalar Network900.node130 	discovery_latency 	4824
scalar Network900.node130 	number_of_desired_resources 	20
scalar Network900.node130 	query_homogenity_rate 	33.333333333333
scalar Network900.node130 	qrecord_time 	60776.352359635
scalar Network900.node130 	discovery_resolution_rate 	66.666666666667
scalar Network900.node70 	rate_of_requesters 	1
scalar Network900.node70 	number_of_resources 	49500
scalar Network900.node70 	time_period 	10
scalar Network900.node70 	number_of_messages 	20
scalar Network900.node70 	discovery_latency 	156
scalar Network900.node70 	number_of_desired_resources 	20
scalar Network900.node70 	query_homogenity_rate 	33.333333333333
scalar Network900.node70 	qrecord_time 	60811.562457666
scalar Network900.node70 	discovery_resolution_rate 	100
scalar Network900.node840 	rate_of_requesters 	1
scalar Network900.node840 	number_of_resources 	49500
scalar Network900.node840 	time_period 	9
scalar Network900.node840 	number_of_messages 	19
scalar Network900.node840 	discovery_latency 	5028
scalar Network900.node840 	number_of_desired_resources 	20
scalar Network900.node840 	query_homogenity_rate 	33.333333333333
scalar Network900.node840 	qrecord_time 	61207.536513954
scalar Network900.node840 	discovery_resolution_rate 	66.666666666667
scalar Network900.node840 	rate_of_requesters 	1
scalar Network900.node840 	number_of_resources 	49500
scalar Network900.node840 	time_period 	10
scalar Network900.node840 	number_of_messages 	17
scalar Network900.node840 	discovery_latency 	119.99999999999
scalar Network900.node840 	number_of_desired_resources 	20
scalar Network900.node840 	query_homogenity_rate 	33.333333333333
scalar Network900.node840 	qrecord_time 	64817.858285549
scalar Network900.node840 	discovery_resolution_rate 	100
scalar Network900.node780 	rate_of_requesters 	1
scalar Network900.node780 	number_of_resources 	49500
scalar Network900.node780 	time_period 	10
scalar Network900.node780 	number_of_messages 	19
scalar Network900.node780 	discovery_latency 	4776
scalar Network900.node780 	number_of_desired_resources 	20
scalar Network900.node780 	query_homogenity_rate 	33.333333333333
scalar Network900.node780 	qrecord_time 	64906.998819016
scalar Network900.node780 	discovery_resolution_rate 	66.666666666667
scalar Network900.node130 	rate_of_requesters 	1
scalar Network900.node130 	number_of_resources 	49500
scalar Network900.node130 	time_period 	9
scalar Network900.node130 	number_of_messages 	12
scalar Network900.node130 	discovery_latency 	4776
scalar Network900.node130 	number_of_desired_resources 	20
scalar Network900.node130 	query_homogenity_rate 	33.333333333333
scalar Network900.node130 	qrecord_time 	65784.841071482
scalar Network900.node130 	discovery_resolution_rate 	66.666666666667
scalar Network900.node490 	rate_of_requesters 	1
scalar Network900.node490 	number_of_resources 	49500
scalar Network900.node490 	time_period 	9
scalar Network900.node490 	number_of_messages 	16
scalar Network900.node490 	discovery_latency 	4788
scalar Network900.node490 	number_of_desired_resources 	20
scalar Network900.node490 	query_homogenity_rate 	33.333333333333
scalar Network900.node490 	qrecord_time 	66383.594298979
scalar Network900.node490 	discovery_resolution_rate 	66.666666666667
scalar Network900.node500 	rate_of_requesters 	1
scalar Network900.node500 	number_of_resources 	49500
scalar Network900.node500 	time_period 	10
scalar Network900.node500 	number_of_messages 	41
scalar Network900.node500 	discovery_latency 	540.00000000001
scalar Network900.node500 	number_of_desired_resources 	20
scalar Network900.node500 	query_homogenity_rate 	33.333333333333
scalar Network900.node500 	qrecord_time 	67077.27602263
scalar Network900.node500 	discovery_resolution_rate 	100
scalar Network900.node130 	rate_of_requesters 	1
scalar Network900.node130 	number_of_resources 	49500
scalar Network900.node130 	time_period 	10
scalar Network900.node130 	number_of_messages 	212
scalar Network900.node130 	discovery_latency 	4776
scalar Network900.node130 	number_of_desired_resources 	20
scalar Network900.node130 	query_homogenity_rate 	33.333333333333
scalar Network900.node130 	qrecord_time 	67754.085018223
scalar Network900.node130 	discovery_resolution_rate 	83.333333333333
scalar Network900.node490 	rate_of_requesters 	1
scalar Network900.node490 	number_of_resources 	49500
scalar Network900.node490 	time_period 	10
scalar Network900.node490 	number_of_messages 	16
scalar Network900.node490 	discovery_latency 	4860
scalar Network900.node490 	number_of_desired_resources 	20
scalar Network900.node490 	query_homogenity_rate 	33.333333333333
scalar Network900.node490 	qrecord_time 	68330.295667778
scalar Network900.node490 	discovery_resolution_rate 	66.666666666667
