version 2
run net900-2-20150624-07:52:49-32318
attr as 1
attr configname net900
attr datetime 20150624-07:52:49
attr dnor 20
attr experiment net900
attr inifile omnetpp.ini
attr iterationvars "$rhdrq=3, $dnor=20, $as=1"
attr iterationvars2 "$rhdrq=3, $dnor=20, $as=1, $repetition=2"
attr measurement "$rhdrq=3, $dnor=20, $as=1"
attr network Network900
attr processid 32318
attr repetition 2
attr replication #2
attr resultdir results
attr rhdrq 3
attr runnumber 2
attr seedset 2

scalar . 	as 	1
scalar . 	dnor 	20
scalar . 	rhdrq 	3
scalar Network900.node730 	rate_of_requesters 	1
scalar Network900.node730 	number_of_resources 	49500
scalar Network900.node730 	time_period 	1
scalar Network900.node730 	number_of_messages 	24
scalar Network900.node730 	discovery_latency 	4956
scalar Network900.node730 	number_of_desired_resources 	20
scalar Network900.node730 	query_homogenity_rate 	33.333333333333
scalar Network900.node730 	qrecord_time 	9598
scalar Network900.node730 	discovery_resolution_rate 	66.666666666667
scalar Network900.node510 	rate_of_requesters 	1
scalar Network900.node510 	number_of_resources 	49500
scalar Network900.node510 	time_period 	1
scalar Network900.node510 	number_of_messages 	40
scalar Network900.node510 	discovery_latency 	4992
scalar Network900.node510 	number_of_desired_resources 	20
scalar Network900.node510 	query_homogenity_rate 	33.333333333333
scalar Network900.node510 	qrecord_time 	9664
scalar Network900.node510 	discovery_resolution_rate 	66.666666666667
scalar Network900.node260 	rate_of_requesters 	1
scalar Network900.node260 	number_of_resources 	49500
scalar Network900.node260 	time_period 	1
scalar Network900.node260 	number_of_messages 	9
scalar Network900.node260 	discovery_latency 	5004
scalar Network900.node260 	number_of_desired_resources 	20
scalar Network900.node260 	query_homogenity_rate 	33.333333333333
scalar Network900.node260 	qrecord_time 	9700
scalar Network900.node260 	discovery_resolution_rate 	66.666666666667
scalar Network900.node710 	rate_of_requesters 	1
scalar Network900.node710 	number_of_resources 	49500
scalar Network900.node710 	time_period 	1
scalar Network900.node710 	number_of_messages 	45
scalar Network900.node710 	discovery_latency 	5064
scalar Network900.node710 	number_of_desired_resources 	20
scalar Network900.node710 	query_homogenity_rate 	33.333333333333
scalar Network900.node710 	qrecord_time 	9754
scalar Network900.node710 	discovery_resolution_rate 	66.666666666667
scalar Network900.node790 	rate_of_requesters 	1
scalar Network900.node790 	number_of_resources 	49500
scalar Network900.node790 	time_period 	1
scalar Network900.node790 	number_of_messages 	41
scalar Network900.node790 	discovery_latency 	5028
scalar Network900.node790 	number_of_desired_resources 	20
scalar Network900.node790 	query_homogenity_rate 	33.333333333333
scalar Network900.node790 	qrecord_time 	9802
scalar Network900.node790 	discovery_resolution_rate 	66.666666666667
scalar Network900.node560 	rate_of_requesters 	1
scalar Network900.node560 	number_of_resources 	49500
scalar Network900.node560 	time_period 	1
scalar Network900.node560 	number_of_messages 	36
scalar Network900.node560 	discovery_latency 	5130
scalar Network900.node560 	number_of_desired_resources 	20
scalar Network900.node560 	query_homogenity_rate 	33.333333333333
scalar Network900.node560 	qrecord_time 	9880
scalar Network900.node560 	discovery_resolution_rate 	33.333333333333
scalar Network900.node360 	rate_of_requesters 	1
scalar Network900.node360 	number_of_resources 	49500
scalar Network900.node360 	time_period 	1
scalar Network900.node360 	number_of_messages 	13
scalar Network900.node360 	discovery_latency 	5202
scalar Network900.node360 	number_of_desired_resources 	20
scalar Network900.node360 	query_homogenity_rate 	33.333333333333
scalar Network900.node360 	qrecord_time 	9892
scalar Network900.node360 	discovery_resolution_rate 	33.333333333333
scalar Network900.node130 	rate_of_requesters 	1
scalar Network900.node130 	number_of_resources 	49500
scalar Network900.node130 	time_period 	1
scalar Network900.node130 	number_of_messages 	7
scalar Network900.node130 	discovery_latency 	5286
scalar Network900.node130 	number_of_desired_resources 	20
scalar Network900.node130 	query_homogenity_rate 	33.333333333333
scalar Network900.node130 	qrecord_time 	9952
scalar Network900.node130 	discovery_resolution_rate 	33.333333333333
scalar Network900.node280 	rate_of_requesters 	1
scalar Network900.node280 	number_of_resources 	49500
scalar Network900.node280 	time_period 	1
scalar Network900.node280 	number_of_messages 	11
scalar Network900.node280 	discovery_latency 	5214
scalar Network900.node280 	number_of_desired_resources 	20
scalar Network900.node280 	query_homogenity_rate 	33.333333333333
scalar Network900.node280 	qrecord_time 	9958
scalar Network900.node280 	discovery_resolution_rate 	33.333333333333
scalar Network900.node700 	rate_of_requesters 	1
scalar Network900.node700 	number_of_resources 	49500
scalar Network900.node700 	time_period 	1
scalar Network900.node700 	number_of_messages 	11
scalar Network900.node700 	discovery_latency 	5322
scalar Network900.node700 	number_of_desired_resources 	20
scalar Network900.node700 	query_homogenity_rate 	33.333333333333
scalar Network900.node700 	qrecord_time 	9994
scalar Network900.node700 	discovery_resolution_rate 	33.333333333333
scalar Network900.node110 	rate_of_requesters 	1
scalar Network900.node110 	number_of_resources 	49500
scalar Network900.node110 	time_period 	1
scalar Network900.node110 	number_of_messages 	58
scalar Network900.node110 	discovery_latency 	5262
scalar Network900.node110 	number_of_desired_resources 	20
scalar Network900.node110 	query_homogenity_rate 	33.333333333333
scalar Network900.node110 	qrecord_time 	10000
scalar Network900.node110 	discovery_resolution_rate 	33.333333333333
scalar Network900.node600 	rate_of_requesters 	1
scalar Network900.node600 	number_of_resources 	49500
scalar Network900.node600 	time_period 	1
scalar Network900.node600 	number_of_messages 	7
scalar Network900.node600 	discovery_latency 	5346
scalar Network900.node600 	number_of_desired_resources 	20
scalar Network900.node600 	query_homogenity_rate 	33.333333333333
scalar Network900.node600 	qrecord_time 	10036
scalar Network900.node600 	discovery_resolution_rate 	33.333333333333
scalar Network900.node490 	rate_of_requesters 	1
scalar Network900.node490 	number_of_resources 	49500
scalar Network900.node490 	time_period 	1
scalar Network900.node490 	number_of_messages 	36
scalar Network900.node490 	discovery_latency 	5394
scalar Network900.node490 	number_of_desired_resources 	20
scalar Network900.node490 	query_homogenity_rate 	33.333333333333
scalar Network900.node490 	qrecord_time 	10120
scalar Network900.node490 	discovery_resolution_rate 	33.333333333333
scalar Network900.node30 	rate_of_requesters 	1
scalar Network900.node30 	number_of_resources 	49500
scalar Network900.node30 	time_period 	1
scalar Network900.node30 	number_of_messages 	246
scalar Network900.node30 	discovery_latency 	5382
scalar Network900.node30 	number_of_desired_resources 	20
scalar Network900.node30 	query_homogenity_rate 	33.333333333333
scalar Network900.node30 	qrecord_time 	10132
scalar Network900.node30 	discovery_resolution_rate 	50
scalar Network900.node20 	rate_of_requesters 	1
scalar Network900.node20 	number_of_resources 	49500
scalar Network900.node20 	time_period 	1
scalar Network900.node20 	number_of_messages 	5
scalar Network900.node20 	discovery_latency 	5394
scalar Network900.node20 	number_of_desired_resources 	20
scalar Network900.node20 	query_homogenity_rate 	33.333333333333
scalar Network900.node20 	qrecord_time 	10138
scalar Network900.node20 	discovery_resolution_rate 	33.333333333333
scalar Network900.node0 	rate_of_requesters 	1
scalar Network900.node0 	number_of_resources 	49500
scalar Network900.node0 	time_period 	1
scalar Network900.node0 	number_of_messages 	6
scalar Network900.node0 	discovery_latency 	5490
scalar Network900.node0 	number_of_desired_resources 	20
scalar Network900.node0 	query_homogenity_rate 	33.333333333333
scalar Network900.node0 	qrecord_time 	10162
scalar Network900.node0 	discovery_resolution_rate 	33.333333333333
scalar Network900.node380 	rate_of_requesters 	1
scalar Network900.node380 	number_of_resources 	49500
scalar Network900.node380 	time_period 	1
scalar Network900.node380 	number_of_messages 	27
scalar Network900.node380 	discovery_latency 	5490
scalar Network900.node380 	number_of_desired_resources 	20
scalar Network900.node380 	query_homogenity_rate 	33.333333333333
scalar Network900.node380 	qrecord_time 	10180
scalar Network900.node380 	discovery_resolution_rate 	33.333333333333
scalar Network900.node230 	rate_of_requesters 	1
scalar Network900.node230 	number_of_resources 	49500
scalar Network900.node230 	time_period 	1
scalar Network900.node230 	number_of_messages 	34
scalar Network900.node230 	discovery_latency 	5514
scalar Network900.node230 	number_of_desired_resources 	20
scalar Network900.node230 	query_homogenity_rate 	33.333333333333
scalar Network900.node230 	qrecord_time 	10210
scalar Network900.node230 	discovery_resolution_rate 	33.333333333333
scalar Network900.node210 	rate_of_requesters 	1
scalar Network900.node210 	number_of_resources 	49500
scalar Network900.node210 	time_period 	1
scalar Network900.node210 	number_of_messages 	6
scalar Network900.node210 	discovery_latency 	5466
scalar Network900.node210 	number_of_desired_resources 	20
scalar Network900.node210 	query_homogenity_rate 	33.333333333333
scalar Network900.node210 	qrecord_time 	10216
scalar Network900.node210 	discovery_resolution_rate 	33.333333333333
scalar Network900.node190 	rate_of_requesters 	1
scalar Network900.node190 	number_of_resources 	49500
scalar Network900.node190 	time_period 	1
scalar Network900.node190 	number_of_messages 	6
scalar Network900.node190 	discovery_latency 	5502
scalar Network900.node190 	number_of_desired_resources 	20
scalar Network900.node190 	query_homogenity_rate 	33.333333333333
scalar Network900.node190 	qrecord_time 	10234
scalar Network900.node190 	discovery_resolution_rate 	33.333333333333
scalar Network900.node550 	rate_of_requesters 	1
scalar Network900.node550 	number_of_resources 	49500
scalar Network900.node550 	time_period 	1
scalar Network900.node550 	number_of_messages 	8
scalar Network900.node550 	discovery_latency 	5466
scalar Network900.node550 	number_of_desired_resources 	20
scalar Network900.node550 	query_homogenity_rate 	33.333333333333
scalar Network900.node550 	qrecord_time 	10240
scalar Network900.node550 	discovery_resolution_rate 	33.333333333333
scalar Network900.node140 	rate_of_requesters 	1
scalar Network900.node140 	number_of_resources 	49500
scalar Network900.node140 	time_period 	1
scalar Network900.node140 	number_of_messages 	39
scalar Network900.node140 	discovery_latency 	5514
scalar Network900.node140 	number_of_desired_resources 	20
scalar Network900.node140 	query_homogenity_rate 	33.333333333333
scalar Network900.node140 	qrecord_time 	10246
scalar Network900.node140 	discovery_resolution_rate 	33.333333333333
scalar Network900.node570 	rate_of_requesters 	1
scalar Network900.node570 	number_of_resources 	49500
scalar Network900.node570 	time_period 	1
scalar Network900.node570 	number_of_messages 	5
scalar Network900.node570 	discovery_latency 	5514
scalar Network900.node570 	number_of_desired_resources 	20
scalar Network900.node570 	query_homogenity_rate 	33.333333333333
scalar Network900.node570 	qrecord_time 	10246
scalar Network900.node570 	discovery_resolution_rate 	33.333333333333
scalar Network900.node660 	rate_of_requesters 	1
scalar Network900.node660 	number_of_resources 	49500
scalar Network900.node660 	time_period 	1
scalar Network900.node660 	number_of_messages 	19
scalar Network900.node660 	discovery_latency 	5586
scalar Network900.node660 	number_of_desired_resources 	20
scalar Network900.node660 	query_homogenity_rate 	33.333333333333
scalar Network900.node660 	qrecord_time 	10252
scalar Network900.node660 	discovery_resolution_rate 	33.333333333333
scalar Network900.node270 	rate_of_requesters 	1
scalar Network900.node270 	number_of_resources 	49500
scalar Network900.node270 	time_period 	1
scalar Network900.node270 	number_of_messages 	7
scalar Network900.node270 	discovery_latency 	5502
scalar Network900.node270 	number_of_desired_resources 	20
scalar Network900.node270 	query_homogenity_rate 	33.333333333333
scalar Network900.node270 	qrecord_time 	10270
scalar Network900.node270 	discovery_resolution_rate 	33.333333333333
scalar Network900.node840 	rate_of_requesters 	1
scalar Network900.node840 	number_of_resources 	49500
scalar Network900.node840 	time_period 	1
scalar Network900.node840 	number_of_messages 	37
scalar Network900.node840 	discovery_latency 	5526
scalar Network900.node840 	number_of_desired_resources 	20
scalar Network900.node840 	query_homogenity_rate 	33.333333333333
scalar Network900.node840 	qrecord_time 	10282
scalar Network900.node840 	discovery_resolution_rate 	33.333333333333
scalar Network900.node160 	rate_of_requesters 	1
scalar Network900.node160 	number_of_resources 	49500
scalar Network900.node160 	time_period 	1
scalar Network900.node160 	number_of_messages 	12
scalar Network900.node160 	discovery_latency 	5598
scalar Network900.node160 	number_of_desired_resources 	20
scalar Network900.node160 	query_homogenity_rate 	33.333333333333
scalar Network900.node160 	qrecord_time 	10312
scalar Network900.node160 	discovery_resolution_rate 	33.333333333333
scalar Network900.node720 	rate_of_requesters 	1
scalar Network900.node720 	number_of_resources 	49500
scalar Network900.node720 	time_period 	1
scalar Network900.node720 	number_of_messages 	4
scalar Network900.node720 	discovery_latency 	5610
scalar Network900.node720 	number_of_desired_resources 	20
scalar Network900.node720 	query_homogenity_rate 	33.333333333333
scalar Network900.node720 	qrecord_time 	10318
scalar Network900.node720 	discovery_resolution_rate 	33.333333333333
scalar Network900.node180 	rate_of_requesters 	1
scalar Network900.node180 	number_of_resources 	49500
scalar Network900.node180 	time_period 	1
scalar Network900.node180 	number_of_messages 	10
scalar Network900.node180 	discovery_latency 	5586
scalar Network900.node180 	number_of_desired_resources 	20
scalar Network900.node180 	query_homogenity_rate 	33.333333333333
scalar Network900.node180 	qrecord_time 	10324
scalar Network900.node180 	discovery_resolution_rate 	33.333333333333
scalar Network900.node240 	rate_of_requesters 	1
scalar Network900.node240 	number_of_resources 	49500
scalar Network900.node240 	time_period 	1
scalar Network900.node240 	number_of_messages 	5
scalar Network900.node240 	discovery_latency 	5574
scalar Network900.node240 	number_of_desired_resources 	20
scalar Network900.node240 	query_homogenity_rate 	33.333333333333
scalar Network900.node240 	qrecord_time 	10330
scalar Network900.node240 	discovery_resolution_rate 	33.333333333333
scalar Network900.node70 	rate_of_requesters 	1
scalar Network900.node70 	number_of_resources 	49500
scalar Network900.node70 	time_period 	1
scalar Network900.node70 	number_of_messages 	15
scalar Network900.node70 	discovery_latency 	5658
scalar Network900.node70 	number_of_desired_resources 	20
scalar Network900.node70 	query_homogenity_rate 	33.333333333333
scalar Network900.node70 	qrecord_time 	10354
scalar Network900.node70 	discovery_resolution_rate 	33.333333333333
scalar Network900.node450 	rate_of_requesters 	1
scalar Network900.node450 	number_of_resources 	49500
scalar Network900.node450 	time_period 	2
scalar Network900.node450 	number_of_messages 	29
scalar Network900.node450 	discovery_latency 	5574
scalar Network900.node450 	number_of_desired_resources 	20
scalar Network900.node450 	query_homogenity_rate 	33.333333333333
scalar Network900.node450 	qrecord_time 	10369.609378878
scalar Network900.node450 	discovery_resolution_rate 	33.333333333333
scalar Network900.node60 	rate_of_requesters 	1
scalar Network900.node60 	number_of_resources 	49500
scalar Network900.node60 	time_period 	1
scalar Network900.node60 	number_of_messages 	6
scalar Network900.node60 	discovery_latency 	5586
scalar Network900.node60 	number_of_desired_resources 	20
scalar Network900.node60 	query_homogenity_rate 	33.333333333333
scalar Network900.node60 	qrecord_time 	10396
scalar Network900.node60 	discovery_resolution_rate 	33.333333333333
scalar Network900.node450 	rate_of_requesters 	1
scalar Network900.node450 	number_of_resources 	49500
scalar Network900.node450 	time_period 	1
scalar Network900.node450 	number_of_messages 	9
scalar Network900.node450 	discovery_latency 	5658
scalar Network900.node450 	number_of_desired_resources 	20
scalar Network900.node450 	query_homogenity_rate 	33.333333333333
scalar Network900.node450 	qrecord_time 	10408
scalar Network900.node450 	discovery_resolution_rate 	33.333333333333
scalar Network900.node330 	rate_of_requesters 	1
scalar Network900.node330 	number_of_resources 	49500
scalar Network900.node330 	time_period 	1
scalar Network900.node330 	number_of_messages 	9
scalar Network900.node330 	discovery_latency 	5754
scalar Network900.node330 	number_of_desired_resources 	20
scalar Network900.node330 	query_homogenity_rate 	33.333333333333
scalar Network900.node330 	qrecord_time 	10444
scalar Network900.node330 	discovery_resolution_rate 	33.333333333333
scalar Network900.node200 	rate_of_requesters 	1
scalar Network900.node200 	number_of_resources 	49500
scalar Network900.node200 	time_period 	2
scalar Network900.node200 	number_of_messages 	10
scalar Network900.node200 	discovery_latency 	5562
scalar Network900.node200 	number_of_desired_resources 	20
scalar Network900.node200 	query_homogenity_rate 	33.333333333333
scalar Network900.node200 	qrecord_time 	10487.317786317
scalar Network900.node200 	discovery_resolution_rate 	33.333333333333
scalar Network900.node300 	rate_of_requesters 	1
scalar Network900.node300 	number_of_resources 	49500
scalar Network900.node300 	time_period 	1
scalar Network900.node300 	number_of_messages 	2
scalar Network900.node300 	discovery_latency 	6660
scalar Network900.node300 	number_of_desired_resources 	20
scalar Network900.node300 	query_homogenity_rate 	33.333333333333
scalar Network900.node300 	qrecord_time 	11302
scalar Network900.node300 	discovery_resolution_rate 	0
scalar Network900.node770 	rate_of_requesters 	1
scalar Network900.node770 	number_of_resources 	49500
scalar Network900.node770 	time_period 	1
scalar Network900.node770 	number_of_messages 	24
scalar Network900.node770 	discovery_latency 	6732
scalar Network900.node770 	number_of_desired_resources 	20
scalar Network900.node770 	query_homogenity_rate 	33.333333333333
scalar Network900.node770 	qrecord_time 	11374
scalar Network900.node770 	discovery_resolution_rate 	33.333333333333
scalar Network900.node50 	rate_of_requesters 	1
scalar Network900.node50 	number_of_resources 	49500
scalar Network900.node50 	time_period 	1
scalar Network900.node50 	number_of_messages 	0
scalar Network900.node50 	discovery_latency 	6672
scalar Network900.node50 	number_of_desired_resources 	20
scalar Network900.node50 	query_homogenity_rate 	33.333333333333
scalar Network900.node50 	qrecord_time 	11392
scalar Network900.node50 	discovery_resolution_rate 	0
scalar Network900.node430 	rate_of_requesters 	1
scalar Network900.node430 	number_of_resources 	49500
scalar Network900.node430 	time_period 	1
scalar Network900.node430 	number_of_messages 	2
scalar Network900.node430 	discovery_latency 	6732
scalar Network900.node430 	number_of_desired_resources 	20
scalar Network900.node430 	query_homogenity_rate 	33.333333333333
scalar Network900.node430 	qrecord_time 	11422
scalar Network900.node430 	discovery_resolution_rate 	0
scalar Network900.node650 	rate_of_requesters 	1
scalar Network900.node650 	number_of_resources 	49500
scalar Network900.node650 	time_period 	1
scalar Network900.node650 	number_of_messages 	2
scalar Network900.node650 	discovery_latency 	6672
scalar Network900.node650 	number_of_desired_resources 	20
scalar Network900.node650 	query_homogenity_rate 	33.333333333333
scalar Network900.node650 	qrecord_time 	11428
scalar Network900.node650 	discovery_resolution_rate 	0
scalar Network900.node410 	rate_of_requesters 	1
scalar Network900.node410 	number_of_resources 	49500
scalar Network900.node410 	time_period 	1
scalar Network900.node410 	number_of_messages 	2
scalar Network900.node410 	discovery_latency 	6732
scalar Network900.node410 	number_of_desired_resources 	20
scalar Network900.node410 	query_homogenity_rate 	33.333333333333
scalar Network900.node410 	qrecord_time 	11482
scalar Network900.node410 	discovery_resolution_rate 	0
scalar Network900.node170 	rate_of_requesters 	1
scalar Network900.node170 	number_of_resources 	49500
scalar Network900.node170 	time_period 	1
scalar Network900.node170 	number_of_messages 	2
scalar Network900.node170 	discovery_latency 	6780
scalar Network900.node170 	number_of_desired_resources 	20
scalar Network900.node170 	query_homogenity_rate 	33.333333333333
scalar Network900.node170 	qrecord_time 	11488
scalar Network900.node170 	discovery_resolution_rate 	0
scalar Network900.node780 	rate_of_requesters 	1
scalar Network900.node780 	number_of_resources 	49500
scalar Network900.node780 	time_period 	1
scalar Network900.node780 	number_of_messages 	6
scalar Network900.node780 	discovery_latency 	6780
scalar Network900.node780 	number_of_desired_resources 	20
scalar Network900.node780 	query_homogenity_rate 	33.333333333333
scalar Network900.node780 	qrecord_time 	11494
scalar Network900.node780 	discovery_resolution_rate 	33.333333333333
scalar Network900.node610 	rate_of_requesters 	1
scalar Network900.node610 	number_of_resources 	49500
scalar Network900.node610 	time_period 	1
scalar Network900.node610 	number_of_messages 	7
scalar Network900.node610 	discovery_latency 	6720
scalar Network900.node610 	number_of_desired_resources 	20
scalar Network900.node610 	query_homogenity_rate 	33.333333333333
scalar Network900.node610 	qrecord_time 	11494
scalar Network900.node610 	discovery_resolution_rate 	33.333333333333
scalar Network900.node620 	rate_of_requesters 	1
scalar Network900.node620 	number_of_resources 	49500
scalar Network900.node620 	time_period 	1
scalar Network900.node620 	number_of_messages 	6
scalar Network900.node620 	discovery_latency 	6768
scalar Network900.node620 	number_of_desired_resources 	20
scalar Network900.node620 	query_homogenity_rate 	33.333333333333
scalar Network900.node620 	qrecord_time 	11506
scalar Network900.node620 	discovery_resolution_rate 	33.333333333333
scalar Network900.node290 	rate_of_requesters 	1
scalar Network900.node290 	number_of_resources 	49500
scalar Network900.node290 	time_period 	1
scalar Network900.node290 	number_of_messages 	2
scalar Network900.node290 	discovery_latency 	6816
scalar Network900.node290 	number_of_desired_resources 	20
scalar Network900.node290 	query_homogenity_rate 	33.333333333333
scalar Network900.node290 	qrecord_time 	11506
scalar Network900.node290 	discovery_resolution_rate 	0
scalar Network900.node630 	rate_of_requesters 	1
scalar Network900.node630 	number_of_resources 	49500
scalar Network900.node630 	time_period 	1
scalar Network900.node630 	number_of_messages 	13
scalar Network900.node630 	discovery_latency 	6744
scalar Network900.node630 	number_of_desired_resources 	20
scalar Network900.node630 	query_homogenity_rate 	33.333333333333
scalar Network900.node630 	qrecord_time 	11518
scalar Network900.node630 	discovery_resolution_rate 	33.333333333333
scalar Network900.node320 	rate_of_requesters 	1
scalar Network900.node320 	number_of_resources 	49500
scalar Network900.node320 	time_period 	1
scalar Network900.node320 	number_of_messages 	12
scalar Network900.node320 	discovery_latency 	6828
scalar Network900.node320 	number_of_desired_resources 	20
scalar Network900.node320 	query_homogenity_rate 	33.333333333333
scalar Network900.node320 	qrecord_time 	11518
scalar Network900.node320 	discovery_resolution_rate 	33.333333333333
scalar Network900.node370 	rate_of_requesters 	1
scalar Network900.node370 	number_of_resources 	49500
scalar Network900.node370 	time_period 	1
scalar Network900.node370 	number_of_messages 	0
scalar Network900.node370 	discovery_latency 	6828
scalar Network900.node370 	number_of_desired_resources 	20
scalar Network900.node370 	query_homogenity_rate 	33.333333333333
scalar Network900.node370 	qrecord_time 	11524
scalar Network900.node370 	discovery_resolution_rate 	0
scalar Network900.node480 	rate_of_requesters 	1
scalar Network900.node480 	number_of_resources 	49500
scalar Network900.node480 	time_period 	1
scalar Network900.node480 	number_of_messages 	347
scalar Network900.node480 	discovery_latency 	6840
scalar Network900.node480 	number_of_desired_resources 	20
scalar Network900.node480 	query_homogenity_rate 	33.333333333333
scalar Network900.node480 	qrecord_time 	11530
scalar Network900.node480 	discovery_resolution_rate 	50
scalar Network900.node740 	rate_of_requesters 	1
scalar Network900.node740 	number_of_resources 	49500
scalar Network900.node740 	time_period 	1
scalar Network900.node740 	number_of_messages 	2
scalar Network900.node740 	discovery_latency 	6804
scalar Network900.node740 	number_of_desired_resources 	20
scalar Network900.node740 	query_homogenity_rate 	33.333333333333
scalar Network900.node740 	qrecord_time 	11536
scalar Network900.node740 	discovery_resolution_rate 	0
scalar Network900.node120 	rate_of_requesters 	1
scalar Network900.node120 	number_of_resources 	49500
scalar Network900.node120 	time_period 	1
scalar Network900.node120 	number_of_messages 	2
scalar Network900.node120 	discovery_latency 	6828
scalar Network900.node120 	number_of_desired_resources 	20
scalar Network900.node120 	query_homogenity_rate 	33.333333333333
scalar Network900.node120 	qrecord_time 	11560
scalar Network900.node120 	discovery_resolution_rate 	0
scalar Network900.node880 	rate_of_requesters 	1
scalar Network900.node880 	number_of_resources 	49500
scalar Network900.node880 	time_period 	1
scalar Network900.node880 	number_of_messages 	2
scalar Network900.node880 	discovery_latency 	6792
scalar Network900.node880 	number_of_desired_resources 	20
scalar Network900.node880 	query_homogenity_rate 	33.333333333333
scalar Network900.node880 	qrecord_time 	11560
scalar Network900.node880 	discovery_resolution_rate 	0
scalar Network900.node800 	rate_of_requesters 	1
scalar Network900.node800 	number_of_resources 	49500
scalar Network900.node800 	time_period 	1
scalar Network900.node800 	number_of_messages 	2
scalar Network900.node800 	discovery_latency 	6828
scalar Network900.node800 	number_of_desired_resources 	20
scalar Network900.node800 	query_homogenity_rate 	33.333333333333
scalar Network900.node800 	qrecord_time 	11560
scalar Network900.node800 	discovery_resolution_rate 	0
scalar Network900.node580 	rate_of_requesters 	1
scalar Network900.node580 	number_of_resources 	49500
scalar Network900.node580 	time_period 	1
scalar Network900.node580 	number_of_messages 	2
scalar Network900.node580 	discovery_latency 	6816
scalar Network900.node580 	number_of_desired_resources 	20
scalar Network900.node580 	query_homogenity_rate 	33.333333333333
scalar Network900.node580 	qrecord_time 	11566
scalar Network900.node580 	discovery_resolution_rate 	0
scalar Network900.node590 	rate_of_requesters 	1
scalar Network900.node590 	number_of_resources 	49500
scalar Network900.node590 	time_period 	1
scalar Network900.node590 	number_of_messages 	2
scalar Network900.node590 	discovery_latency 	6840
scalar Network900.node590 	number_of_desired_resources 	20
scalar Network900.node590 	query_homogenity_rate 	33.333333333333
scalar Network900.node590 	qrecord_time 	11566
scalar Network900.node590 	discovery_resolution_rate 	0
scalar Network900.node200 	rate_of_requesters 	1
scalar Network900.node200 	number_of_resources 	49500
scalar Network900.node200 	time_period 	1
scalar Network900.node200 	number_of_messages 	2
scalar Network900.node200 	discovery_latency 	6804
scalar Network900.node200 	number_of_desired_resources 	20
scalar Network900.node200 	query_homogenity_rate 	33.333333333333
scalar Network900.node200 	qrecord_time 	11572
scalar Network900.node200 	discovery_resolution_rate 	0
scalar Network900.node750 	rate_of_requesters 	1
scalar Network900.node750 	number_of_resources 	49500
scalar Network900.node750 	time_period 	1
scalar Network900.node750 	number_of_messages 	2
scalar Network900.node750 	discovery_latency 	6864
scalar Network900.node750 	number_of_desired_resources 	20
scalar Network900.node750 	query_homogenity_rate 	33.333333333333
scalar Network900.node750 	qrecord_time 	11572
scalar Network900.node750 	discovery_resolution_rate 	0
scalar Network900.node500 	rate_of_requesters 	1
scalar Network900.node500 	number_of_resources 	49500
scalar Network900.node500 	time_period 	1
scalar Network900.node500 	number_of_messages 	12
scalar Network900.node500 	discovery_latency 	6864
scalar Network900.node500 	number_of_desired_resources 	20
scalar Network900.node500 	query_homogenity_rate 	33.333333333333
scalar Network900.node500 	qrecord_time 	11572
scalar Network900.node500 	discovery_resolution_rate 	33.333333333333
scalar Network900.node10 	rate_of_requesters 	1
scalar Network900.node10 	number_of_resources 	49500
scalar Network900.node10 	time_period 	1
scalar Network900.node10 	number_of_messages 	2
scalar Network900.node10 	discovery_latency 	6912
scalar Network900.node10 	number_of_desired_resources 	20
scalar Network900.node10 	query_homogenity_rate 	33.333333333333
scalar Network900.node10 	qrecord_time 	11578
scalar Network900.node10 	discovery_resolution_rate 	0
scalar Network900.node470 	rate_of_requesters 	1
scalar Network900.node470 	number_of_resources 	49500
scalar Network900.node470 	time_period 	1
scalar Network900.node470 	number_of_messages 	341
scalar Network900.node470 	discovery_latency 	6792
scalar Network900.node470 	number_of_desired_resources 	20
scalar Network900.node470 	query_homogenity_rate 	33.333333333333
scalar Network900.node470 	qrecord_time 	11584
scalar Network900.node470 	discovery_resolution_rate 	16.666666666667
scalar Network900.node540 	rate_of_requesters 	1
scalar Network900.node540 	number_of_resources 	49500
scalar Network900.node540 	time_period 	1
scalar Network900.node540 	number_of_messages 	2
scalar Network900.node540 	discovery_latency 	6924
scalar Network900.node540 	number_of_desired_resources 	20
scalar Network900.node540 	query_homogenity_rate 	33.333333333333
scalar Network900.node540 	qrecord_time 	11590
scalar Network900.node540 	discovery_resolution_rate 	0
scalar Network900.node690 	rate_of_requesters 	1
scalar Network900.node690 	number_of_resources 	49500
scalar Network900.node690 	time_period 	1
scalar Network900.node690 	number_of_messages 	2
scalar Network900.node690 	discovery_latency 	6888
scalar Network900.node690 	number_of_desired_resources 	20
scalar Network900.node690 	query_homogenity_rate 	33.333333333333
scalar Network900.node690 	qrecord_time 	11596
scalar Network900.node690 	discovery_resolution_rate 	0
scalar Network900.node870 	rate_of_requesters 	1
scalar Network900.node870 	number_of_resources 	49500
scalar Network900.node870 	time_period 	1
scalar Network900.node870 	number_of_messages 	7
scalar Network900.node870 	discovery_latency 	6828
scalar Network900.node870 	number_of_desired_resources 	20
scalar Network900.node870 	query_homogenity_rate 	33.333333333333
scalar Network900.node870 	qrecord_time 	11602
scalar Network900.node870 	discovery_resolution_rate 	33.333333333333
scalar Network900.node820 	rate_of_requesters 	1
scalar Network900.node820 	number_of_resources 	49500
scalar Network900.node820 	time_period 	1
scalar Network900.node820 	number_of_messages 	2
scalar Network900.node820 	discovery_latency 	6852
scalar Network900.node820 	number_of_desired_resources 	20
scalar Network900.node820 	query_homogenity_rate 	33.333333333333
scalar Network900.node820 	qrecord_time 	11608
scalar Network900.node820 	discovery_resolution_rate 	0
scalar Network900.node220 	rate_of_requesters 	1
scalar Network900.node220 	number_of_resources 	49500
scalar Network900.node220 	time_period 	1
scalar Network900.node220 	number_of_messages 	2
scalar Network900.node220 	discovery_latency 	6840
scalar Network900.node220 	number_of_desired_resources 	20
scalar Network900.node220 	query_homogenity_rate 	33.333333333333
scalar Network900.node220 	qrecord_time 	11608
scalar Network900.node220 	discovery_resolution_rate 	0
scalar Network900.node760 	rate_of_requesters 	1
scalar Network900.node760 	number_of_resources 	49500
scalar Network900.node760 	time_period 	1
scalar Network900.node760 	number_of_messages 	2
scalar Network900.node760 	discovery_latency 	6912
scalar Network900.node760 	number_of_desired_resources 	20
scalar Network900.node760 	query_homogenity_rate 	33.333333333333
scalar Network900.node760 	qrecord_time 	11620
scalar Network900.node760 	discovery_resolution_rate 	0
scalar Network900.node310 	rate_of_requesters 	1
scalar Network900.node310 	number_of_resources 	49500
scalar Network900.node310 	time_period 	1
scalar Network900.node310 	number_of_messages 	2
scalar Network900.node310 	discovery_latency 	6936
scalar Network900.node310 	number_of_desired_resources 	20
scalar Network900.node310 	query_homogenity_rate 	33.333333333333
scalar Network900.node310 	qrecord_time 	11626
scalar Network900.node310 	discovery_resolution_rate 	0
scalar Network900.node860 	rate_of_requesters 	1
scalar Network900.node860 	number_of_resources 	49500
scalar Network900.node860 	time_period 	1
scalar Network900.node860 	number_of_messages 	2
scalar Network900.node860 	discovery_latency 	6876
scalar Network900.node860 	number_of_desired_resources 	20
scalar Network900.node860 	query_homogenity_rate 	33.333333333333
scalar Network900.node860 	qrecord_time 	11626
scalar Network900.node860 	discovery_resolution_rate 	0
scalar Network900.node680 	rate_of_requesters 	1
scalar Network900.node680 	number_of_resources 	49500
scalar Network900.node680 	time_period 	1
scalar Network900.node680 	number_of_messages 	2
scalar Network900.node680 	discovery_latency 	6900
scalar Network900.node680 	number_of_desired_resources 	20
scalar Network900.node680 	query_homogenity_rate 	33.333333333333
scalar Network900.node680 	qrecord_time 	11632
scalar Network900.node680 	discovery_resolution_rate 	0
scalar Network900.node40 	rate_of_requesters 	1
scalar Network900.node40 	number_of_resources 	49500
scalar Network900.node40 	time_period 	1
scalar Network900.node40 	number_of_messages 	341
scalar Network900.node40 	discovery_latency 	6972
scalar Network900.node40 	number_of_desired_resources 	20
scalar Network900.node40 	query_homogenity_rate 	33.333333333333
scalar Network900.node40 	qrecord_time 	11638
scalar Network900.node40 	discovery_resolution_rate 	16.666666666667
scalar Network900.node80 	rate_of_requesters 	1
scalar Network900.node80 	number_of_resources 	49500
scalar Network900.node80 	time_period 	1
scalar Network900.node80 	number_of_messages 	0
scalar Network900.node80 	discovery_latency 	6924
scalar Network900.node80 	number_of_desired_resources 	20
scalar Network900.node80 	query_homogenity_rate 	33.333333333333
scalar Network900.node80 	qrecord_time 	11644
scalar Network900.node80 	discovery_resolution_rate 	0
scalar Network900.node460 	rate_of_requesters 	1
scalar Network900.node460 	number_of_resources 	49500
scalar Network900.node460 	time_period 	1
scalar Network900.node460 	number_of_messages 	2
scalar Network900.node460 	discovery_latency 	6792
scalar Network900.node460 	number_of_desired_resources 	20
scalar Network900.node460 	query_homogenity_rate 	33.333333333333
scalar Network900.node460 	qrecord_time 	11650
scalar Network900.node460 	discovery_resolution_rate 	0
scalar Network900.node350 	rate_of_requesters 	1
scalar Network900.node350 	number_of_resources 	49500
scalar Network900.node350 	time_period 	1
scalar Network900.node350 	number_of_messages 	2
scalar Network900.node350 	discovery_latency 	6924
scalar Network900.node350 	number_of_desired_resources 	20
scalar Network900.node350 	query_homogenity_rate 	33.333333333333
scalar Network900.node350 	qrecord_time 	11656
scalar Network900.node350 	discovery_resolution_rate 	0
scalar Network900.node530 	rate_of_requesters 	1
scalar Network900.node530 	number_of_resources 	49500
scalar Network900.node530 	time_period 	1
scalar Network900.node530 	number_of_messages 	12
scalar Network900.node530 	discovery_latency 	6972
scalar Network900.node530 	number_of_desired_resources 	20
scalar Network900.node530 	query_homogenity_rate 	33.333333333333
scalar Network900.node530 	qrecord_time 	11662
scalar Network900.node530 	discovery_resolution_rate 	33.333333333333
scalar Network900.node150 	rate_of_requesters 	1
scalar Network900.node150 	number_of_resources 	49500
scalar Network900.node150 	time_period 	1
scalar Network900.node150 	number_of_messages 	2
scalar Network900.node150 	discovery_latency 	6924
scalar Network900.node150 	number_of_desired_resources 	20
scalar Network900.node150 	query_homogenity_rate 	33.333333333333
scalar Network900.node150 	qrecord_time 	11680
scalar Network900.node150 	discovery_resolution_rate 	0
scalar Network900.node890 	rate_of_requesters 	1
scalar Network900.node890 	number_of_resources 	49500
scalar Network900.node890 	time_period 	1
scalar Network900.node890 	number_of_messages 	10
scalar Network900.node890 	discovery_latency 	6900
scalar Network900.node890 	number_of_desired_resources 	20
scalar Network900.node890 	query_homogenity_rate 	33.333333333333
scalar Network900.node890 	qrecord_time 	11686
scalar Network900.node890 	discovery_resolution_rate 	33.333333333333
scalar Network900.node520 	rate_of_requesters 	1
scalar Network900.node520 	number_of_resources 	49500
scalar Network900.node520 	time_period 	1
scalar Network900.node520 	number_of_messages 	2
scalar Network900.node520 	discovery_latency 	6864
scalar Network900.node520 	number_of_desired_resources 	20
scalar Network900.node520 	query_homogenity_rate 	33.333333333333
scalar Network900.node520 	qrecord_time 	11686
scalar Network900.node520 	discovery_resolution_rate 	0
scalar Network900.node440 	rate_of_requesters 	1
scalar Network900.node440 	number_of_resources 	49500
scalar Network900.node440 	time_period 	1
scalar Network900.node440 	number_of_messages 	2
scalar Network900.node440 	discovery_latency 	6960
scalar Network900.node440 	number_of_desired_resources 	20
scalar Network900.node440 	query_homogenity_rate 	33.333333333333
scalar Network900.node440 	qrecord_time 	11686
scalar Network900.node440 	discovery_resolution_rate 	0
scalar Network900.node90 	rate_of_requesters 	1
scalar Network900.node90 	number_of_resources 	49500
scalar Network900.node90 	time_period 	1
scalar Network900.node90 	number_of_messages 	2
scalar Network900.node90 	discovery_latency 	6984
scalar Network900.node90 	number_of_desired_resources 	20
scalar Network900.node90 	query_homogenity_rate 	33.333333333333
scalar Network900.node90 	qrecord_time 	11698
scalar Network900.node90 	discovery_resolution_rate 	0
scalar Network900.node390 	rate_of_requesters 	1
scalar Network900.node390 	number_of_resources 	49500
scalar Network900.node390 	time_period 	1
scalar Network900.node390 	number_of_messages 	2
scalar Network900.node390 	discovery_latency 	6888
scalar Network900.node390 	number_of_desired_resources 	20
scalar Network900.node390 	query_homogenity_rate 	33.333333333333
scalar Network900.node390 	qrecord_time 	11698
scalar Network900.node390 	discovery_resolution_rate 	0
scalar Network900.node640 	rate_of_requesters 	1
scalar Network900.node640 	number_of_resources 	49500
scalar Network900.node640 	time_period 	1
scalar Network900.node640 	number_of_messages 	2
scalar Network900.node640 	discovery_latency 	6900
scalar Network900.node640 	number_of_desired_resources 	20
scalar Network900.node640 	query_homogenity_rate 	33.333333333333
scalar Network900.node640 	qrecord_time 	11704
scalar Network900.node640 	discovery_resolution_rate 	0
scalar Network900.node340 	rate_of_requesters 	1
scalar Network900.node340 	number_of_resources 	49500
scalar Network900.node340 	time_period 	1
scalar Network900.node340 	number_of_messages 	6
scalar Network900.node340 	discovery_latency 	7020
scalar Network900.node340 	number_of_desired_resources 	20
scalar Network900.node340 	query_homogenity_rate 	33.333333333333
scalar Network900.node340 	qrecord_time 	11740
scalar Network900.node340 	discovery_resolution_rate 	33.333333333333
scalar Network900.node420 	rate_of_requesters 	1
scalar Network900.node420 	number_of_resources 	49500
scalar Network900.node420 	time_period 	1
scalar Network900.node420 	number_of_messages 	2
scalar Network900.node420 	discovery_latency 	6996
scalar Network900.node420 	number_of_desired_resources 	20
scalar Network900.node420 	query_homogenity_rate 	33.333333333333
scalar Network900.node420 	qrecord_time 	11764
scalar Network900.node420 	discovery_resolution_rate 	0
scalar Network900.node590 	rate_of_requesters 	1
scalar Network900.node590 	number_of_resources 	49500
scalar Network900.node590 	time_period 	2
scalar Network900.node590 	number_of_messages 	2
scalar Network900.node590 	discovery_latency 	6900
scalar Network900.node590 	number_of_desired_resources 	20
scalar Network900.node590 	query_homogenity_rate 	33.333333333333
scalar Network900.node590 	qrecord_time 	11799.173810375
scalar Network900.node590 	discovery_resolution_rate 	0
scalar Network900.node670 	rate_of_requesters 	1
scalar Network900.node670 	number_of_resources 	49500
scalar Network900.node670 	time_period 	1
scalar Network900.node670 	number_of_messages 	2
scalar Network900.node670 	discovery_latency 	7008
scalar Network900.node670 	number_of_desired_resources 	20
scalar Network900.node670 	query_homogenity_rate 	33.333333333333
scalar Network900.node670 	qrecord_time 	11800
scalar Network900.node670 	discovery_resolution_rate 	0
scalar Network900.node810 	rate_of_requesters 	1
scalar Network900.node810 	number_of_resources 	49500
scalar Network900.node810 	time_period 	1
scalar Network900.node810 	number_of_messages 	2
scalar Network900.node810 	discovery_latency 	7008
scalar Network900.node810 	number_of_desired_resources 	20
scalar Network900.node810 	query_homogenity_rate 	33.333333333333
scalar Network900.node810 	qrecord_time 	11812
scalar Network900.node810 	discovery_resolution_rate 	0
scalar Network900.node400 	rate_of_requesters 	1
scalar Network900.node400 	number_of_resources 	49500
scalar Network900.node400 	time_period 	1
scalar Network900.node400 	number_of_messages 	2
scalar Network900.node400 	discovery_latency 	6996
scalar Network900.node400 	number_of_desired_resources 	20
scalar Network900.node400 	query_homogenity_rate 	33.333333333333
scalar Network900.node400 	qrecord_time 	11812
scalar Network900.node400 	discovery_resolution_rate 	0
scalar Network900.node250 	rate_of_requesters 	1
scalar Network900.node250 	number_of_resources 	49500
scalar Network900.node250 	time_period 	1
scalar Network900.node250 	number_of_messages 	341
scalar Network900.node250 	discovery_latency 	6960
scalar Network900.node250 	number_of_desired_resources 	20
scalar Network900.node250 	query_homogenity_rate 	33.333333333333
scalar Network900.node250 	qrecord_time 	11818
scalar Network900.node250 	discovery_resolution_rate 	16.666666666667
scalar Network900.node100 	rate_of_requesters 	1
scalar Network900.node100 	number_of_resources 	49500
scalar Network900.node100 	time_period 	1
scalar Network900.node100 	number_of_messages 	2
scalar Network900.node100 	discovery_latency 	7020
scalar Network900.node100 	number_of_desired_resources 	20
scalar Network900.node100 	query_homogenity_rate 	33.333333333333
scalar Network900.node100 	qrecord_time 	11818
scalar Network900.node100 	discovery_resolution_rate 	0
scalar Network900.node850 	rate_of_requesters 	1
scalar Network900.node850 	number_of_resources 	49500
scalar Network900.node850 	time_period 	1
scalar Network900.node850 	number_of_messages 	0
scalar Network900.node850 	discovery_latency 	7128
scalar Network900.node850 	number_of_desired_resources 	20
scalar Network900.node850 	query_homogenity_rate 	33.333333333333
scalar Network900.node850 	qrecord_time 	11824
scalar Network900.node850 	discovery_resolution_rate 	0
scalar Network900.node830 	rate_of_requesters 	1
scalar Network900.node830 	number_of_resources 	49500
scalar Network900.node830 	time_period 	1
scalar Network900.node830 	number_of_messages 	2
scalar Network900.node830 	discovery_latency 	7116
scalar Network900.node830 	number_of_desired_resources 	20
scalar Network900.node830 	query_homogenity_rate 	33.333333333333
scalar Network900.node830 	qrecord_time 	11830
scalar Network900.node830 	discovery_resolution_rate 	0
scalar Network900.node140 	rate_of_requesters 	1
scalar Network900.node140 	number_of_resources 	49500
scalar Network900.node140 	time_period 	2
scalar Network900.node140 	number_of_messages 	2
scalar Network900.node140 	discovery_latency 	6996
scalar Network900.node140 	number_of_desired_resources 	20
scalar Network900.node140 	query_homogenity_rate 	33.333333333333
scalar Network900.node140 	qrecord_time 	11852.882756718
scalar Network900.node140 	discovery_resolution_rate 	0
scalar Network900.node30 	rate_of_requesters 	1
scalar Network900.node30 	number_of_resources 	49500
scalar Network900.node30 	time_period 	3
scalar Network900.node30 	number_of_messages 	2
scalar Network900.node30 	discovery_latency 	6732
scalar Network900.node30 	number_of_desired_resources 	20
scalar Network900.node30 	query_homogenity_rate 	33.333333333333
scalar Network900.node30 	qrecord_time 	11905.083640411
scalar Network900.node30 	discovery_resolution_rate 	0
scalar Network900.node140 	rate_of_requesters 	1
scalar Network900.node140 	number_of_resources 	49500
scalar Network900.node140 	time_period 	3
scalar Network900.node140 	number_of_messages 	2
scalar Network900.node140 	discovery_latency 	6912
scalar Network900.node140 	number_of_desired_resources 	20
scalar Network900.node140 	query_homogenity_rate 	33.333333333333
scalar Network900.node140 	qrecord_time 	11914.788492916
scalar Network900.node140 	discovery_resolution_rate 	0
scalar Network900.node490 	rate_of_requesters 	1
scalar Network900.node490 	number_of_resources 	49500
scalar Network900.node490 	time_period 	2
scalar Network900.node490 	number_of_messages 	2
scalar Network900.node490 	discovery_latency 	6708
scalar Network900.node490 	number_of_desired_resources 	20
scalar Network900.node490 	query_homogenity_rate 	33.333333333333
scalar Network900.node490 	qrecord_time 	11952.948525265
scalar Network900.node490 	discovery_resolution_rate 	0
scalar Network900.node440 	rate_of_requesters 	1
scalar Network900.node440 	number_of_resources 	49500
scalar Network900.node440 	time_period 	2
scalar Network900.node440 	number_of_messages 	2
scalar Network900.node440 	discovery_latency 	6816
scalar Network900.node440 	number_of_desired_resources 	20
scalar Network900.node440 	query_homogenity_rate 	33.333333333333
scalar Network900.node440 	qrecord_time 	11994.924703127
scalar Network900.node440 	discovery_resolution_rate 	0
scalar Network900.node600 	rate_of_requesters 	1
scalar Network900.node600 	number_of_resources 	49500
scalar Network900.node600 	time_period 	2
scalar Network900.node600 	number_of_messages 	2
scalar Network900.node600 	discovery_latency 	6864
scalar Network900.node600 	number_of_desired_resources 	20
scalar Network900.node600 	query_homogenity_rate 	33.333333333333
scalar Network900.node600 	qrecord_time 	12001.687529951
scalar Network900.node600 	discovery_resolution_rate 	0
scalar Network900.node200 	rate_of_requesters 	1
scalar Network900.node200 	number_of_resources 	49500
scalar Network900.node200 	time_period 	3
scalar Network900.node200 	number_of_messages 	2
scalar Network900.node200 	discovery_latency 	6672
scalar Network900.node200 	number_of_desired_resources 	20
scalar Network900.node200 	query_homogenity_rate 	33.333333333333
scalar Network900.node200 	qrecord_time 	12016.853299134
scalar Network900.node200 	discovery_resolution_rate 	0
scalar Network900.node190 	rate_of_requesters 	1
scalar Network900.node190 	number_of_resources 	49500
scalar Network900.node190 	time_period 	2
scalar Network900.node190 	number_of_messages 	2
scalar Network900.node190 	discovery_latency 	6888
scalar Network900.node190 	number_of_desired_resources 	20
scalar Network900.node190 	query_homogenity_rate 	33.333333333333
scalar Network900.node190 	qrecord_time 	12098.73881906
scalar Network900.node190 	discovery_resolution_rate 	0
scalar Network900.node30 	rate_of_requesters 	1
scalar Network900.node30 	number_of_resources 	49500
scalar Network900.node30 	time_period 	2
scalar Network900.node30 	number_of_messages 	2
scalar Network900.node30 	discovery_latency 	7128
scalar Network900.node30 	number_of_desired_resources 	20
scalar Network900.node30 	query_homogenity_rate 	33.333333333333
scalar Network900.node30 	qrecord_time 	12153.318642054
scalar Network900.node30 	discovery_resolution_rate 	0
scalar Network900.node840 	rate_of_requesters 	1
scalar Network900.node840 	number_of_resources 	49500
scalar Network900.node840 	time_period 	2
scalar Network900.node840 	number_of_messages 	2
scalar Network900.node840 	discovery_latency 	7068
scalar Network900.node840 	number_of_desired_resources 	20
scalar Network900.node840 	query_homogenity_rate 	33.333333333333
scalar Network900.node840 	qrecord_time 	12162.856608705
scalar Network900.node840 	discovery_resolution_rate 	0
scalar Network900.node60 	rate_of_requesters 	1
scalar Network900.node60 	number_of_resources 	49500
scalar Network900.node60 	time_period 	2
scalar Network900.node60 	number_of_messages 	2
scalar Network900.node60 	discovery_latency 	7068
scalar Network900.node60 	number_of_desired_resources 	20
scalar Network900.node60 	query_homogenity_rate 	33.333333333333
scalar Network900.node60 	qrecord_time 	12194.449985854
scalar Network900.node60 	discovery_resolution_rate 	0
scalar Network900.node160 	rate_of_requesters 	1
scalar Network900.node160 	number_of_resources 	49500
scalar Network900.node160 	time_period 	2
scalar Network900.node160 	number_of_messages 	2
scalar Network900.node160 	discovery_latency 	6660
scalar Network900.node160 	number_of_desired_resources 	20
scalar Network900.node160 	query_homogenity_rate 	33.333333333333
scalar Network900.node160 	qrecord_time 	12290.29646118
scalar Network900.node160 	discovery_resolution_rate 	0
scalar Network900.node0 	rate_of_requesters 	1
scalar Network900.node0 	number_of_resources 	49500
scalar Network900.node0 	time_period 	2
scalar Network900.node0 	number_of_messages 	0
scalar Network900.node0 	discovery_latency 	6744
scalar Network900.node0 	number_of_desired_resources 	20
scalar Network900.node0 	query_homogenity_rate 	33.333333333333
scalar Network900.node0 	qrecord_time 	12464.445401994
scalar Network900.node0 	discovery_resolution_rate 	0
scalar Network900.node220 	rate_of_requesters 	1
scalar Network900.node220 	number_of_resources 	49500
scalar Network900.node220 	time_period 	2
scalar Network900.node220 	number_of_messages 	2
scalar Network900.node220 	discovery_latency 	6912
scalar Network900.node220 	number_of_desired_resources 	20
scalar Network900.node220 	query_homogenity_rate 	33.333333333333
scalar Network900.node220 	qrecord_time 	12474.700511705
scalar Network900.node220 	discovery_resolution_rate 	0
scalar Network900.node520 	rate_of_requesters 	1
scalar Network900.node520 	number_of_resources 	49500
scalar Network900.node520 	time_period 	2
scalar Network900.node520 	number_of_messages 	2
scalar Network900.node520 	discovery_latency 	6600
scalar Network900.node520 	number_of_desired_resources 	20
scalar Network900.node520 	query_homogenity_rate 	33.333333333333
scalar Network900.node520 	qrecord_time 	12501.050035252
scalar Network900.node520 	discovery_resolution_rate 	0
scalar Network900.node600 	rate_of_requesters 	1
scalar Network900.node600 	number_of_resources 	49500
scalar Network900.node600 	time_period 	3
scalar Network900.node600 	number_of_messages 	2
scalar Network900.node600 	discovery_latency 	6804
scalar Network900.node600 	number_of_desired_resources 	20
scalar Network900.node600 	query_homogenity_rate 	33.333333333333
scalar Network900.node600 	qrecord_time 	12565.526288943
scalar Network900.node600 	discovery_resolution_rate 	0
scalar Network900.node720 	rate_of_requesters 	1
scalar Network900.node720 	number_of_resources 	49500
scalar Network900.node720 	time_period 	2
scalar Network900.node720 	number_of_messages 	2
scalar Network900.node720 	discovery_latency 	6756
scalar Network900.node720 	number_of_desired_resources 	20
scalar Network900.node720 	query_homogenity_rate 	33.333333333333
scalar Network900.node720 	qrecord_time 	12597.585984121
scalar Network900.node720 	discovery_resolution_rate 	0
scalar Network900.node450 	rate_of_requesters 	1
scalar Network900.node450 	number_of_resources 	49500
scalar Network900.node450 	time_period 	3
scalar Network900.node450 	number_of_messages 	2
scalar Network900.node450 	discovery_latency 	6720
scalar Network900.node450 	number_of_desired_resources 	20
scalar Network900.node450 	query_homogenity_rate 	33.333333333333
scalar Network900.node450 	qrecord_time 	12603.218762546
scalar Network900.node450 	discovery_resolution_rate 	0
scalar Network900.node800 	rate_of_requesters 	1
scalar Network900.node800 	number_of_resources 	49500
scalar Network900.node800 	time_period 	2
scalar Network900.node800 	number_of_messages 	2
scalar Network900.node800 	discovery_latency 	7044
scalar Network900.node800 	number_of_desired_resources 	20
scalar Network900.node800 	query_homogenity_rate 	33.333333333333
scalar Network900.node800 	qrecord_time 	12709.337732205
scalar Network900.node800 	discovery_resolution_rate 	0
scalar Network900.node200 	rate_of_requesters 	1
scalar Network900.node200 	number_of_resources 	49500
scalar Network900.node200 	time_period 	4
scalar Network900.node200 	number_of_messages 	2
scalar Network900.node200 	discovery_latency 	6828
scalar Network900.node200 	number_of_desired_resources 	20
scalar Network900.node200 	query_homogenity_rate 	33.333333333333
scalar Network900.node200 	qrecord_time 	12860.422924809
scalar Network900.node200 	discovery_resolution_rate 	0
scalar Network900.node840 	rate_of_requesters 	1
scalar Network900.node840 	number_of_resources 	49500
scalar Network900.node840 	time_period 	3
scalar Network900.node840 	number_of_messages 	2
scalar Network900.node840 	discovery_latency 	7080
scalar Network900.node840 	number_of_desired_resources 	20
scalar Network900.node840 	query_homogenity_rate 	33.333333333333
scalar Network900.node840 	qrecord_time 	12862.632637753
scalar Network900.node840 	discovery_resolution_rate 	0
scalar Network900.node280 	rate_of_requesters 	1
scalar Network900.node280 	number_of_resources 	49500
scalar Network900.node280 	time_period 	2
scalar Network900.node280 	number_of_messages 	0
scalar Network900.node280 	discovery_latency 	6768
scalar Network900.node280 	number_of_desired_resources 	20
scalar Network900.node280 	query_homogenity_rate 	33.333333333333
scalar Network900.node280 	qrecord_time 	12882.885187358
scalar Network900.node280 	discovery_resolution_rate 	0
scalar Network900.node750 	rate_of_requesters 	1
scalar Network900.node750 	number_of_resources 	49500
scalar Network900.node750 	time_period 	2
scalar Network900.node750 	number_of_messages 	2
scalar Network900.node750 	discovery_latency 	6804
scalar Network900.node750 	number_of_desired_resources 	20
scalar Network900.node750 	query_homogenity_rate 	33.333333333333
scalar Network900.node750 	qrecord_time 	12920.345996582
scalar Network900.node750 	discovery_resolution_rate 	0
scalar Network900.node340 	rate_of_requesters 	1
scalar Network900.node340 	number_of_resources 	49500
scalar Network900.node340 	time_period 	2
scalar Network900.node340 	number_of_messages 	0
scalar Network900.node340 	discovery_latency 	6648
scalar Network900.node340 	number_of_desired_resources 	20
scalar Network900.node340 	query_homogenity_rate 	33.333333333333
scalar Network900.node340 	qrecord_time 	12961.711265115
scalar Network900.node340 	discovery_resolution_rate 	0
scalar Network900.node850 	rate_of_requesters 	1
scalar Network900.node850 	number_of_resources 	49500
scalar Network900.node850 	time_period 	3
scalar Network900.node850 	number_of_messages 	0
scalar Network900.node850 	discovery_latency 	6744
scalar Network900.node850 	number_of_desired_resources 	20
scalar Network900.node850 	query_homogenity_rate 	33.333333333333
scalar Network900.node850 	qrecord_time 	12973.850145262
scalar Network900.node850 	discovery_resolution_rate 	0
scalar Network900.node850 	rate_of_requesters 	1
scalar Network900.node850 	number_of_resources 	49500
scalar Network900.node850 	time_period 	2
scalar Network900.node850 	number_of_messages 	0
scalar Network900.node850 	discovery_latency 	7080
scalar Network900.node850 	number_of_desired_resources 	20
scalar Network900.node850 	query_homogenity_rate 	33.333333333333
scalar Network900.node850 	qrecord_time 	12983.244140993
scalar Network900.node850 	discovery_resolution_rate 	0
scalar Network900.node620 	rate_of_requesters 	1
scalar Network900.node620 	number_of_resources 	49500
scalar Network900.node620 	time_period 	2
scalar Network900.node620 	number_of_messages 	2
scalar Network900.node620 	discovery_latency 	6876
scalar Network900.node620 	number_of_desired_resources 	20
scalar Network900.node620 	query_homogenity_rate 	33.333333333333
scalar Network900.node620 	qrecord_time 	12988.265507279
scalar Network900.node620 	discovery_resolution_rate 	0
scalar Network900.node550 	rate_of_requesters 	1
scalar Network900.node550 	number_of_resources 	49500
scalar Network900.node550 	time_period 	2
scalar Network900.node550 	number_of_messages 	2
scalar Network900.node550 	discovery_latency 	6600
scalar Network900.node550 	number_of_desired_resources 	20
scalar Network900.node550 	query_homogenity_rate 	33.333333333333
scalar Network900.node550 	qrecord_time 	12999.430461119
scalar Network900.node550 	discovery_resolution_rate 	0
scalar Network900.node70 	rate_of_requesters 	1
scalar Network900.node70 	number_of_resources 	49500
scalar Network900.node70 	time_period 	2
scalar Network900.node70 	number_of_messages 	0
scalar Network900.node70 	discovery_latency 	6780
scalar Network900.node70 	number_of_desired_resources 	20
scalar Network900.node70 	query_homogenity_rate 	33.333333333333
scalar Network900.node70 	qrecord_time 	13013.544832252
scalar Network900.node70 	discovery_resolution_rate 	0
scalar Network900.node420 	rate_of_requesters 	1
scalar Network900.node420 	number_of_resources 	49500
scalar Network900.node420 	time_period 	2
scalar Network900.node420 	number_of_messages 	2
scalar Network900.node420 	discovery_latency 	7044
scalar Network900.node420 	number_of_desired_resources 	20
scalar Network900.node420 	query_homogenity_rate 	33.333333333333
scalar Network900.node420 	qrecord_time 	13052.675499995
scalar Network900.node420 	discovery_resolution_rate 	0
scalar Network900.node270 	rate_of_requesters 	1
scalar Network900.node270 	number_of_resources 	49500
scalar Network900.node270 	time_period 	2
scalar Network900.node270 	number_of_messages 	2
scalar Network900.node270 	discovery_latency 	6636
scalar Network900.node270 	number_of_desired_resources 	20
scalar Network900.node270 	query_homogenity_rate 	33.333333333333
scalar Network900.node270 	qrecord_time 	13123.302119871
scalar Network900.node270 	discovery_resolution_rate 	0
scalar Network900.node100 	rate_of_requesters 	1
scalar Network900.node100 	number_of_resources 	49500
scalar Network900.node100 	time_period 	2
scalar Network900.node100 	number_of_messages 	2
scalar Network900.node100 	discovery_latency 	6756
scalar Network900.node100 	number_of_desired_resources 	20
scalar Network900.node100 	query_homogenity_rate 	33.333333333333
scalar Network900.node100 	qrecord_time 	13137.052752521
scalar Network900.node100 	discovery_resolution_rate 	0
scalar Network900.node60 	rate_of_requesters 	1
scalar Network900.node60 	number_of_resources 	49500
scalar Network900.node60 	time_period 	3
scalar Network900.node60 	number_of_messages 	2
scalar Network900.node60 	discovery_latency 	6888
scalar Network900.node60 	number_of_desired_resources 	20
scalar Network900.node60 	query_homogenity_rate 	33.333333333333
scalar Network900.node60 	qrecord_time 	13138.239159512
scalar Network900.node60 	discovery_resolution_rate 	0
scalar Network900.node640 	rate_of_requesters 	1
scalar Network900.node640 	number_of_resources 	49500
scalar Network900.node640 	time_period 	2
scalar Network900.node640 	number_of_messages 	2
scalar Network900.node640 	discovery_latency 	6876
scalar Network900.node640 	number_of_desired_resources 	20
scalar Network900.node640 	query_homogenity_rate 	33.333333333333
scalar Network900.node640 	qrecord_time 	13138.415892851
scalar Network900.node640 	discovery_resolution_rate 	0
scalar Network900.node460 	rate_of_requesters 	1
scalar Network900.node460 	number_of_resources 	49500
scalar Network900.node460 	time_period 	2
scalar Network900.node460 	number_of_messages 	2
scalar Network900.node460 	discovery_latency 	6696
scalar Network900.node460 	number_of_desired_resources 	20
scalar Network900.node460 	query_homogenity_rate 	33.333333333333
scalar Network900.node460 	qrecord_time 	13180.602465234
scalar Network900.node460 	discovery_resolution_rate 	0
scalar Network900.node720 	rate_of_requesters 	1
scalar Network900.node720 	number_of_resources 	49500
scalar Network900.node720 	time_period 	3
scalar Network900.node720 	number_of_messages 	2
scalar Network900.node720 	discovery_latency 	6936
scalar Network900.node720 	number_of_desired_resources 	20
scalar Network900.node720 	query_homogenity_rate 	33.333333333333
scalar Network900.node720 	qrecord_time 	13209.20403599
scalar Network900.node720 	discovery_resolution_rate 	0
scalar Network900.node400 	rate_of_requesters 	1
scalar Network900.node400 	number_of_resources 	49500
scalar Network900.node400 	time_period 	2
scalar Network900.node400 	number_of_messages 	2
scalar Network900.node400 	discovery_latency 	6792
scalar Network900.node400 	number_of_desired_resources 	20
scalar Network900.node400 	query_homogenity_rate 	33.333333333333
scalar Network900.node400 	qrecord_time 	13225.879202656
scalar Network900.node400 	discovery_resolution_rate 	0
scalar Network900.node540 	rate_of_requesters 	1
scalar Network900.node540 	number_of_resources 	49500
scalar Network900.node540 	time_period 	2
scalar Network900.node540 	number_of_messages 	2
scalar Network900.node540 	discovery_latency 	6936
scalar Network900.node540 	number_of_desired_resources 	20
scalar Network900.node540 	query_homogenity_rate 	33.333333333333
scalar Network900.node540 	qrecord_time 	13247.951468391
scalar Network900.node540 	discovery_resolution_rate 	0
scalar Network900.node610 	rate_of_requesters 	1
scalar Network900.node610 	number_of_resources 	49500
scalar Network900.node610 	time_period 	2
scalar Network900.node610 	number_of_messages 	2
scalar Network900.node610 	discovery_latency 	6924
scalar Network900.node610 	number_of_desired_resources 	20
scalar Network900.node610 	query_homogenity_rate 	33.333333333333
scalar Network900.node610 	qrecord_time 	13294.675389816
scalar Network900.node610 	discovery_resolution_rate 	0
scalar Network900.node480 	rate_of_requesters 	1
scalar Network900.node480 	number_of_resources 	49500
scalar Network900.node480 	time_period 	2
scalar Network900.node480 	number_of_messages 	2
scalar Network900.node480 	discovery_latency 	6864
scalar Network900.node480 	number_of_desired_resources 	20
scalar Network900.node480 	query_homogenity_rate 	33.333333333333
scalar Network900.node480 	qrecord_time 	13317.585907706
scalar Network900.node480 	discovery_resolution_rate 	0
scalar Network900.node860 	rate_of_requesters 	1
scalar Network900.node860 	number_of_resources 	49500
scalar Network900.node860 	time_period 	2
scalar Network900.node860 	number_of_messages 	2
scalar Network900.node860 	discovery_latency 	6852
scalar Network900.node860 	number_of_desired_resources 	20
scalar Network900.node860 	query_homogenity_rate 	33.333333333333
scalar Network900.node860 	qrecord_time 	13354.87738934
scalar Network900.node860 	discovery_resolution_rate 	0
scalar Network900.node710 	rate_of_requesters 	1
scalar Network900.node710 	number_of_resources 	49500
scalar Network900.node710 	time_period 	2
scalar Network900.node710 	number_of_messages 	2
scalar Network900.node710 	discovery_latency 	6720
scalar Network900.node710 	number_of_desired_resources 	20
scalar Network900.node710 	query_homogenity_rate 	33.333333333333
scalar Network900.node710 	qrecord_time 	13376.695643348
scalar Network900.node710 	discovery_resolution_rate 	0
scalar Network900.node450 	rate_of_requesters 	1
scalar Network900.node450 	number_of_resources 	49500
scalar Network900.node450 	time_period 	4
scalar Network900.node450 	number_of_messages 	2
scalar Network900.node450 	discovery_latency 	6696
scalar Network900.node450 	number_of_desired_resources 	20
scalar Network900.node450 	query_homogenity_rate 	33.333333333333
scalar Network900.node450 	qrecord_time 	13478.396047902
scalar Network900.node450 	discovery_resolution_rate 	0
scalar Network900.node360 	rate_of_requesters 	1
scalar Network900.node360 	number_of_resources 	49500
scalar Network900.node360 	time_period 	2
scalar Network900.node360 	number_of_messages 	2
scalar Network900.node360 	discovery_latency 	6900
scalar Network900.node360 	number_of_desired_resources 	20
scalar Network900.node360 	query_homogenity_rate 	33.333333333333
scalar Network900.node360 	qrecord_time 	13497.506141232
scalar Network900.node360 	discovery_resolution_rate 	0
scalar Network900.node70 	rate_of_requesters 	1
scalar Network900.node70 	number_of_resources 	49500
scalar Network900.node70 	time_period 	3
scalar Network900.node70 	number_of_messages 	0
scalar Network900.node70 	discovery_latency 	6816
scalar Network900.node70 	number_of_desired_resources 	20
scalar Network900.node70 	query_homogenity_rate 	33.333333333333
scalar Network900.node70 	qrecord_time 	13585.734399544
scalar Network900.node70 	discovery_resolution_rate 	0
scalar Network900.node280 	rate_of_requesters 	1
scalar Network900.node280 	number_of_resources 	49500
scalar Network900.node280 	time_period 	3
scalar Network900.node280 	number_of_messages 	0
scalar Network900.node280 	discovery_latency 	6636
scalar Network900.node280 	number_of_desired_resources 	20
scalar Network900.node280 	query_homogenity_rate 	33.333333333333
scalar Network900.node280 	qrecord_time 	13601.428843685
scalar Network900.node280 	discovery_resolution_rate 	0
scalar Network900.node700 	rate_of_requesters 	1
scalar Network900.node700 	number_of_resources 	49500
scalar Network900.node700 	time_period 	2
scalar Network900.node700 	number_of_messages 	0
scalar Network900.node700 	discovery_latency 	6792
scalar Network900.node700 	number_of_desired_resources 	20
scalar Network900.node700 	query_homogenity_rate 	33.333333333333
scalar Network900.node700 	qrecord_time 	13639.433660565
scalar Network900.node700 	discovery_resolution_rate 	0
scalar Network900.node390 	rate_of_requesters 	1
scalar Network900.node390 	number_of_resources 	49500
scalar Network900.node390 	time_period 	2
scalar Network900.node390 	number_of_messages 	2
scalar Network900.node390 	discovery_latency 	6816
scalar Network900.node390 	number_of_desired_resources 	20
scalar Network900.node390 	query_homogenity_rate 	33.333333333333
scalar Network900.node390 	qrecord_time 	13723.042084924
scalar Network900.node390 	discovery_resolution_rate 	0
scalar Network900.node640 	rate_of_requesters 	1
scalar Network900.node640 	number_of_resources 	49500
scalar Network900.node640 	time_period 	3
scalar Network900.node640 	number_of_messages 	2
scalar Network900.node640 	discovery_latency 	6888
scalar Network900.node640 	number_of_desired_resources 	20
scalar Network900.node640 	query_homogenity_rate 	33.333333333333
scalar Network900.node640 	qrecord_time 	13787.2546616
scalar Network900.node640 	discovery_resolution_rate 	0
scalar Network900.node480 	rate_of_requesters 	1
scalar Network900.node480 	number_of_resources 	49500
scalar Network900.node480 	time_period 	3
scalar Network900.node480 	number_of_messages 	2
scalar Network900.node480 	discovery_latency 	6804
scalar Network900.node480 	number_of_desired_resources 	20
scalar Network900.node480 	query_homogenity_rate 	33.333333333333
scalar Network900.node480 	qrecord_time 	13790.591742963
scalar Network900.node480 	discovery_resolution_rate 	0
scalar Network900.node10 	rate_of_requesters 	1
scalar Network900.node10 	number_of_resources 	49500
scalar Network900.node10 	time_period 	2
scalar Network900.node10 	number_of_messages 	2
scalar Network900.node10 	discovery_latency 	6684
scalar Network900.node10 	number_of_desired_resources 	20
scalar Network900.node10 	query_homogenity_rate 	33.333333333333
scalar Network900.node10 	qrecord_time 	13871.420471578
scalar Network900.node10 	discovery_resolution_rate 	0
scalar Network900.node140 	rate_of_requesters 	1
scalar Network900.node140 	number_of_resources 	49500
scalar Network900.node140 	time_period 	4
scalar Network900.node140 	number_of_messages 	2
scalar Network900.node140 	discovery_latency 	6840
scalar Network900.node140 	number_of_desired_resources 	20
scalar Network900.node140 	query_homogenity_rate 	33.333333333333
scalar Network900.node140 	qrecord_time 	13901.841367292
scalar Network900.node140 	discovery_resolution_rate 	0
scalar Network900.node450 	rate_of_requesters 	1
scalar Network900.node450 	number_of_resources 	49500
scalar Network900.node450 	time_period 	5
scalar Network900.node450 	number_of_messages 	2
scalar Network900.node450 	discovery_latency 	6696
scalar Network900.node450 	number_of_desired_resources 	20
scalar Network900.node450 	query_homogenity_rate 	33.333333333333
scalar Network900.node450 	qrecord_time 	13959.612326097
scalar Network900.node450 	discovery_resolution_rate 	0
scalar Network900.node520 	rate_of_requesters 	1
scalar Network900.node520 	number_of_resources 	49500
scalar Network900.node520 	time_period 	3
scalar Network900.node520 	number_of_messages 	2
scalar Network900.node520 	discovery_latency 	6840
scalar Network900.node520 	number_of_desired_resources 	20
scalar Network900.node520 	query_homogenity_rate 	33.333333333333
scalar Network900.node520 	qrecord_time 	14007.861390415
scalar Network900.node520 	discovery_resolution_rate 	0
scalar Network900.node820 	rate_of_requesters 	1
scalar Network900.node820 	number_of_resources 	49500
scalar Network900.node820 	time_period 	2
scalar Network900.node820 	number_of_messages 	2
scalar Network900.node820 	discovery_latency 	6972
scalar Network900.node820 	number_of_desired_resources 	20
scalar Network900.node820 	query_homogenity_rate 	33.333333333333
scalar Network900.node820 	qrecord_time 	14036.433937579
scalar Network900.node820 	discovery_resolution_rate 	0
scalar Network900.node60 	rate_of_requesters 	1
scalar Network900.node60 	number_of_resources 	49500
scalar Network900.node60 	time_period 	4
scalar Network900.node60 	number_of_messages 	2
scalar Network900.node60 	discovery_latency 	6864
scalar Network900.node60 	number_of_desired_resources 	20
scalar Network900.node60 	query_homogenity_rate 	33.333333333333
scalar Network900.node60 	qrecord_time 	14080.863067557
scalar Network900.node60 	discovery_resolution_rate 	0
scalar Network900.node420 	rate_of_requesters 	1
scalar Network900.node420 	number_of_resources 	49500
scalar Network900.node420 	time_period 	3
scalar Network900.node420 	number_of_messages 	2
scalar Network900.node420 	discovery_latency 	7008
scalar Network900.node420 	number_of_desired_resources 	20
scalar Network900.node420 	query_homogenity_rate 	33.333333333333
scalar Network900.node420 	qrecord_time 	14092.251720206
scalar Network900.node420 	discovery_resolution_rate 	0
scalar Network900.node550 	rate_of_requesters 	1
scalar Network900.node550 	number_of_resources 	49500
scalar Network900.node550 	time_period 	3
scalar Network900.node550 	number_of_messages 	2
scalar Network900.node550 	discovery_latency 	6756
scalar Network900.node550 	number_of_desired_resources 	20
scalar Network900.node550 	query_homogenity_rate 	33.333333333333
scalar Network900.node550 	qrecord_time 	14365.428130685
scalar Network900.node550 	discovery_resolution_rate 	0
scalar Network900.node420 	rate_of_requesters 	1
scalar Network900.node420 	number_of_resources 	49500
scalar Network900.node420 	time_period 	4
scalar Network900.node420 	number_of_messages 	2
scalar Network900.node420 	discovery_latency 	6936
scalar Network900.node420 	number_of_desired_resources 	20
scalar Network900.node420 	query_homogenity_rate 	33.333333333333
scalar Network900.node420 	qrecord_time 	14419.183009743
scalar Network900.node420 	discovery_resolution_rate 	0
scalar Network900.node290 	rate_of_requesters 	1
scalar Network900.node290 	number_of_resources 	49500
scalar Network900.node290 	time_period 	2
scalar Network900.node290 	number_of_messages 	2
scalar Network900.node290 	discovery_latency 	6528
scalar Network900.node290 	number_of_desired_resources 	20
scalar Network900.node290 	query_homogenity_rate 	33.333333333333
scalar Network900.node290 	qrecord_time 	14622.429868604
scalar Network900.node290 	discovery_resolution_rate 	0
scalar Network900.node440 	rate_of_requesters 	1
scalar Network900.node440 	number_of_resources 	49500
scalar Network900.node440 	time_period 	3
scalar Network900.node440 	number_of_messages 	2
scalar Network900.node440 	discovery_latency 	6732
scalar Network900.node440 	number_of_desired_resources 	20
scalar Network900.node440 	query_homogenity_rate 	33.333333333333
scalar Network900.node440 	qrecord_time 	14736.257389314
scalar Network900.node440 	discovery_resolution_rate 	0
scalar Network900.node370 	rate_of_requesters 	1
scalar Network900.node370 	number_of_resources 	49500
scalar Network900.node370 	time_period 	2
scalar Network900.node370 	number_of_messages 	0
scalar Network900.node370 	discovery_latency 	6936
scalar Network900.node370 	number_of_desired_resources 	20
scalar Network900.node370 	query_homogenity_rate 	33.333333333333
scalar Network900.node370 	qrecord_time 	14749.534881956
scalar Network900.node370 	discovery_resolution_rate 	0
scalar Network900.node650 	rate_of_requesters 	1
scalar Network900.node650 	number_of_resources 	49500
scalar Network900.node650 	time_period 	2
scalar Network900.node650 	number_of_messages 	2
scalar Network900.node650 	discovery_latency 	6912
scalar Network900.node650 	number_of_desired_resources 	20
scalar Network900.node650 	query_homogenity_rate 	33.333333333333
scalar Network900.node650 	qrecord_time 	14765.484814821
scalar Network900.node650 	discovery_resolution_rate 	0
scalar Network900.node560 	rate_of_requesters 	1
scalar Network900.node560 	number_of_resources 	49500
scalar Network900.node560 	time_period 	2
scalar Network900.node560 	number_of_messages 	2
scalar Network900.node560 	discovery_latency 	6828
scalar Network900.node560 	number_of_desired_resources 	20
scalar Network900.node560 	query_homogenity_rate 	33.333333333333
scalar Network900.node560 	qrecord_time 	14779.042167821
scalar Network900.node560 	discovery_resolution_rate 	0
scalar Network900.node750 	rate_of_requesters 	1
scalar Network900.node750 	number_of_resources 	49500
scalar Network900.node750 	time_period 	3
scalar Network900.node750 	number_of_messages 	2
scalar Network900.node750 	discovery_latency 	6804
scalar Network900.node750 	number_of_desired_resources 	20
scalar Network900.node750 	query_homogenity_rate 	33.333333333333
scalar Network900.node750 	qrecord_time 	14791.699039676
scalar Network900.node750 	discovery_resolution_rate 	0
scalar Network900.node350 	rate_of_requesters 	1
scalar Network900.node350 	number_of_resources 	49500
scalar Network900.node350 	time_period 	2
scalar Network900.node350 	number_of_messages 	2
scalar Network900.node350 	discovery_latency 	6744
scalar Network900.node350 	number_of_desired_resources 	20
scalar Network900.node350 	query_homogenity_rate 	33.333333333333
scalar Network900.node350 	qrecord_time 	14890.246821947
scalar Network900.node350 	discovery_resolution_rate 	0
scalar Network900.node10 	rate_of_requesters 	1
scalar Network900.node10 	number_of_resources 	49500
scalar Network900.node10 	time_period 	3
scalar Network900.node10 	number_of_messages 	2
scalar Network900.node10 	discovery_latency 	6816
scalar Network900.node10 	number_of_desired_resources 	20
scalar Network900.node10 	query_homogenity_rate 	33.333333333333
scalar Network900.node10 	qrecord_time 	14970.762115915
scalar Network900.node10 	discovery_resolution_rate 	0
scalar Network900.node260 	rate_of_requesters 	1
scalar Network900.node260 	number_of_resources 	49500
scalar Network900.node260 	time_period 	2
scalar Network900.node260 	number_of_messages 	0
scalar Network900.node260 	discovery_latency 	6900
scalar Network900.node260 	number_of_desired_resources 	20
scalar Network900.node260 	query_homogenity_rate 	33.333333333333
scalar Network900.node260 	qrecord_time 	14992.658276031
scalar Network900.node260 	discovery_resolution_rate 	0
scalar Network900.node770 	rate_of_requesters 	1
scalar Network900.node770 	number_of_resources 	49500
scalar Network900.node770 	time_period 	2
scalar Network900.node770 	number_of_messages 	2
scalar Network900.node770 	discovery_latency 	6804
scalar Network900.node770 	number_of_desired_resources 	20
scalar Network900.node770 	query_homogenity_rate 	33.333333333333
scalar Network900.node770 	qrecord_time 	15001.695999957
scalar Network900.node770 	discovery_resolution_rate 	0
scalar Network900.node790 	rate_of_requesters 	1
scalar Network900.node790 	number_of_resources 	49500
scalar Network900.node790 	time_period 	2
scalar Network900.node790 	number_of_messages 	2
scalar Network900.node790 	discovery_latency 	6948
scalar Network900.node790 	number_of_desired_resources 	20
scalar Network900.node790 	query_homogenity_rate 	33.333333333333
scalar Network900.node790 	qrecord_time 	15035.825770078
scalar Network900.node790 	discovery_resolution_rate 	0
scalar Network900.node750 	rate_of_requesters 	1
scalar Network900.node750 	number_of_resources 	49500
scalar Network900.node750 	time_period 	4
scalar Network900.node750 	number_of_messages 	2
scalar Network900.node750 	discovery_latency 	6852
scalar Network900.node750 	number_of_desired_resources 	20
scalar Network900.node750 	query_homogenity_rate 	33.333333333333
scalar Network900.node750 	qrecord_time 	15168.554752503
scalar Network900.node750 	discovery_resolution_rate 	0
scalar Network900.node380 	rate_of_requesters 	1
scalar Network900.node380 	number_of_resources 	49500
scalar Network900.node380 	time_period 	2
scalar Network900.node380 	number_of_messages 	2
scalar Network900.node380 	discovery_latency 	6948
scalar Network900.node380 	number_of_desired_resources 	20
scalar Network900.node380 	query_homogenity_rate 	33.333333333333
scalar Network900.node380 	qrecord_time 	15271.696540838
scalar Network900.node380 	discovery_resolution_rate 	0
scalar Network900.node660 	rate_of_requesters 	1
scalar Network900.node660 	number_of_resources 	49500
scalar Network900.node660 	time_period 	2
[...]
scalar Network900.node170 	qrecord_time 	54924.027161861
scalar Network900.node170 	discovery_resolution_rate 	33.333333333333
scalar Network900.node710 	rate_of_requesters 	1
scalar Network900.node710 	number_of_resources 	49500
scalar Network900.node710 	time_period 	10
scalar Network900.node710 	number_of_messages 	91
scalar Network900.node710 	discovery_latency 	5598
scalar Network900.node710 	number_of_desired_resources 	20
scalar Network900.node710 	query_homogenity_rate 	33.333333333333
scalar Network900.node710 	qrecord_time 	55767.388783951
scalar Network900.node710 	discovery_resolution_rate 	33.333333333333
scalar Network900.node760 	rate_of_requesters 	1
scalar Network900.node760 	number_of_resources 	49500
scalar Network900.node760 	time_period 	6
scalar Network900.node760 	number_of_messages 	43
scalar Network900.node760 	discovery_latency 	4968
scalar Network900.node760 	number_of_desired_resources 	20
scalar Network900.node760 	query_homogenity_rate 	33.333333333333
scalar Network900.node760 	qrecord_time 	55912.094402855
scalar Network900.node760 	discovery_resolution_rate 	66.666666666667
scalar Network900.node140 	rate_of_requesters 	1
scalar Network900.node140 	number_of_resources 	49500
scalar Network900.node140 	time_period 	10
scalar Network900.node140 	number_of_messages 	341
scalar Network900.node140 	discovery_latency 	6840
scalar Network900.node140 	number_of_desired_resources 	20
scalar Network900.node140 	query_homogenity_rate 	33.333333333333
scalar Network900.node140 	qrecord_time 	56090.552863414
scalar Network900.node140 	discovery_resolution_rate 	16.666666666667
scalar Network900.node880 	rate_of_requesters 	1
scalar Network900.node880 	number_of_resources 	49500
scalar Network900.node880 	time_period 	8
scalar Network900.node880 	number_of_messages 	34
scalar Network900.node880 	discovery_latency 	5526
scalar Network900.node880 	number_of_desired_resources 	20
scalar Network900.node880 	query_homogenity_rate 	33.333333333333
scalar Network900.node880 	qrecord_time 	56319.726694967
scalar Network900.node880 	discovery_resolution_rate 	33.333333333333
scalar Network900.node530 	rate_of_requesters 	1
scalar Network900.node530 	number_of_resources 	49500
scalar Network900.node530 	time_period 	9
scalar Network900.node530 	number_of_messages 	86
scalar Network900.node530 	discovery_latency 	4920
scalar Network900.node530 	number_of_desired_resources 	20
scalar Network900.node530 	query_homogenity_rate 	33.333333333333
scalar Network900.node530 	qrecord_time 	56322.010903173
scalar Network900.node530 	discovery_resolution_rate 	66.666666666667
scalar Network900.node870 	rate_of_requesters 	1
scalar Network900.node870 	number_of_resources 	49500
scalar Network900.node870 	time_period 	8
scalar Network900.node870 	number_of_messages 	50
scalar Network900.node870 	discovery_latency 	4944
scalar Network900.node870 	number_of_desired_resources 	20
scalar Network900.node870 	query_homogenity_rate 	33.333333333333
scalar Network900.node870 	qrecord_time 	56448.740046791
scalar Network900.node870 	discovery_resolution_rate 	66.666666666667
scalar Network900.node240 	rate_of_requesters 	1
scalar Network900.node240 	number_of_resources 	49500
scalar Network900.node240 	time_period 	9
scalar Network900.node240 	number_of_messages 	2
scalar Network900.node240 	discovery_latency 	6804
scalar Network900.node240 	number_of_desired_resources 	20
scalar Network900.node240 	query_homogenity_rate 	33.333333333333
scalar Network900.node240 	qrecord_time 	56867.601550241
scalar Network900.node240 	discovery_resolution_rate 	0
scalar Network900.node120 	rate_of_requesters 	1
scalar Network900.node120 	number_of_resources 	49500
scalar Network900.node120 	time_period 	10
scalar Network900.node120 	number_of_messages 	18
scalar Network900.node120 	discovery_latency 	5076
scalar Network900.node120 	number_of_desired_resources 	20
scalar Network900.node120 	query_homogenity_rate 	33.333333333333
scalar Network900.node120 	qrecord_time 	57272.268813543
scalar Network900.node120 	discovery_resolution_rate 	66.666666666667
scalar Network900.node180 	rate_of_requesters 	1
scalar Network900.node180 	number_of_resources 	49500
scalar Network900.node180 	time_period 	8
scalar Network900.node180 	number_of_messages 	32
scalar Network900.node180 	discovery_latency 	4932
scalar Network900.node180 	number_of_desired_resources 	20
scalar Network900.node180 	query_homogenity_rate 	33.333333333333
scalar Network900.node180 	qrecord_time 	57405.876374902
scalar Network900.node180 	discovery_resolution_rate 	66.666666666667
scalar Network900.node50 	rate_of_requesters 	1
scalar Network900.node50 	number_of_resources 	49500
scalar Network900.node50 	time_period 	9
scalar Network900.node50 	number_of_messages 	68
scalar Network900.node50 	discovery_latency 	4908
scalar Network900.node50 	number_of_desired_resources 	20
scalar Network900.node50 	query_homogenity_rate 	33.333333333333
scalar Network900.node50 	qrecord_time 	57550.377268394
scalar Network900.node50 	discovery_resolution_rate 	66.666666666667
scalar Network900.node430 	rate_of_requesters 	1
scalar Network900.node430 	number_of_resources 	49500
scalar Network900.node430 	time_period 	9
scalar Network900.node430 	number_of_messages 	63
scalar Network900.node430 	discovery_latency 	4896
scalar Network900.node430 	number_of_desired_resources 	20
scalar Network900.node430 	query_homogenity_rate 	33.333333333333
scalar Network900.node430 	qrecord_time 	57615.120533407
scalar Network900.node430 	discovery_resolution_rate 	66.666666666667
scalar Network900.node230 	rate_of_requesters 	1
scalar Network900.node230 	number_of_resources 	49500
scalar Network900.node230 	time_period 	9
scalar Network900.node230 	number_of_messages 	30
scalar Network900.node230 	discovery_latency 	5430
scalar Network900.node230 	number_of_desired_resources 	20
scalar Network900.node230 	query_homogenity_rate 	33.333333333333
scalar Network900.node230 	qrecord_time 	58020.813130395
scalar Network900.node230 	discovery_resolution_rate 	33.333333333333
scalar Network900.node180 	rate_of_requesters 	1
scalar Network900.node180 	number_of_resources 	49500
scalar Network900.node180 	time_period 	9
scalar Network900.node180 	number_of_messages 	30
scalar Network900.node180 	discovery_latency 	5052
scalar Network900.node180 	number_of_desired_resources 	20
scalar Network900.node180 	query_homogenity_rate 	33.333333333333
scalar Network900.node180 	qrecord_time 	58954.24727962
scalar Network900.node180 	discovery_resolution_rate 	66.666666666667
scalar Network900.node230 	rate_of_requesters 	1
scalar Network900.node230 	number_of_resources 	49500
scalar Network900.node230 	time_period 	10
scalar Network900.node230 	number_of_messages 	15
scalar Network900.node230 	discovery_latency 	5076
scalar Network900.node230 	number_of_desired_resources 	20
scalar Network900.node230 	query_homogenity_rate 	33.333333333333
scalar Network900.node230 	qrecord_time 	59449.208836478
scalar Network900.node230 	discovery_resolution_rate 	66.666666666667
scalar Network900.node870 	rate_of_requesters 	1
scalar Network900.node870 	number_of_resources 	49500
scalar Network900.node870 	time_period 	9
scalar Network900.node870 	number_of_messages 	8
scalar Network900.node870 	discovery_latency 	5454
scalar Network900.node870 	number_of_desired_resources 	20
scalar Network900.node870 	query_homogenity_rate 	33.333333333333
scalar Network900.node870 	qrecord_time 	59726.530133051
scalar Network900.node870 	discovery_resolution_rate 	33.333333333333
scalar Network900.node760 	rate_of_requesters 	1
scalar Network900.node760 	number_of_resources 	49500
scalar Network900.node760 	time_period 	7
scalar Network900.node760 	number_of_messages 	18
scalar Network900.node760 	discovery_latency 	5502
scalar Network900.node760 	number_of_desired_resources 	20
scalar Network900.node760 	query_homogenity_rate 	33.333333333333
scalar Network900.node760 	qrecord_time 	59822.990555786
scalar Network900.node760 	discovery_resolution_rate 	33.333333333333
scalar Network900.node240 	rate_of_requesters 	1
scalar Network900.node240 	number_of_resources 	49500
scalar Network900.node240 	time_period 	10
scalar Network900.node240 	number_of_messages 	42
scalar Network900.node240 	discovery_latency 	5040
scalar Network900.node240 	number_of_desired_resources 	20
scalar Network900.node240 	query_homogenity_rate 	33.333333333333
scalar Network900.node240 	qrecord_time 	60204.269473871
scalar Network900.node240 	discovery_resolution_rate 	66.666666666667
scalar Network900.node870 	rate_of_requesters 	1
scalar Network900.node870 	number_of_resources 	49500
scalar Network900.node870 	time_period 	10
scalar Network900.node870 	number_of_messages 	12
scalar Network900.node870 	discovery_latency 	4944
scalar Network900.node870 	number_of_desired_resources 	20
scalar Network900.node870 	query_homogenity_rate 	33.333333333333
scalar Network900.node870 	qrecord_time 	60331.988481751
scalar Network900.node870 	discovery_resolution_rate 	66.666666666667
scalar Network900.node0 	rate_of_requesters 	1
scalar Network900.node0 	number_of_resources 	49500
scalar Network900.node0 	time_period 	8
scalar Network900.node0 	number_of_messages 	30
scalar Network900.node0 	discovery_latency 	4812
scalar Network900.node0 	number_of_desired_resources 	20
scalar Network900.node0 	query_homogenity_rate 	33.333333333333
scalar Network900.node0 	qrecord_time 	60652.528459945
scalar Network900.node0 	discovery_resolution_rate 	66.666666666667
scalar Network900.node880 	rate_of_requesters 	1
scalar Network900.node880 	number_of_resources 	49500
scalar Network900.node880 	time_period 	9
scalar Network900.node880 	number_of_messages 	18
scalar Network900.node880 	discovery_latency 	4860
scalar Network900.node880 	number_of_desired_resources 	20
scalar Network900.node880 	query_homogenity_rate 	33.333333333333
scalar Network900.node880 	qrecord_time 	61506.14234902
scalar Network900.node880 	discovery_resolution_rate 	66.666666666667
scalar Network900.node760 	rate_of_requesters 	1
scalar Network900.node760 	number_of_resources 	49500
scalar Network900.node760 	time_period 	8
scalar Network900.node760 	number_of_messages 	18
scalar Network900.node760 	discovery_latency 	5502
scalar Network900.node760 	number_of_desired_resources 	20
scalar Network900.node760 	query_homogenity_rate 	33.333333333333
scalar Network900.node760 	qrecord_time 	61646.587294258
scalar Network900.node760 	discovery_resolution_rate 	33.333333333333
scalar Network900.node180 	rate_of_requesters 	1
scalar Network900.node180 	number_of_resources 	49500
scalar Network900.node180 	time_period 	10
scalar Network900.node180 	number_of_messages 	14
scalar Network900.node180 	discovery_latency 	4704
scalar Network900.node180 	number_of_desired_resources 	20
scalar Network900.node180 	query_homogenity_rate 	33.333333333333
scalar Network900.node180 	qrecord_time 	61669.788397662
scalar Network900.node180 	discovery_resolution_rate 	66.666666666667
scalar Network900.node530 	rate_of_requesters 	1
scalar Network900.node530 	number_of_resources 	49500
scalar Network900.node530 	time_period 	10
scalar Network900.node530 	number_of_messages 	17
scalar Network900.node530 	discovery_latency 	4860
scalar Network900.node530 	number_of_desired_resources 	20
scalar Network900.node530 	query_homogenity_rate 	33.333333333333
scalar Network900.node530 	qrecord_time 	62102.744980225
scalar Network900.node530 	discovery_resolution_rate 	66.666666666667
scalar Network900.node760 	rate_of_requesters 	1
scalar Network900.node760 	number_of_resources 	49500
scalar Network900.node760 	time_period 	9
scalar Network900.node760 	number_of_messages 	24
scalar Network900.node760 	discovery_latency 	4884
scalar Network900.node760 	number_of_desired_resources 	20
scalar Network900.node760 	query_homogenity_rate 	33.333333333333
scalar Network900.node760 	qrecord_time 	62328.270781837
scalar Network900.node760 	discovery_resolution_rate 	66.666666666667
scalar Network900.node50 	rate_of_requesters 	1
scalar Network900.node50 	number_of_resources 	49500
scalar Network900.node50 	time_period 	10
scalar Network900.node50 	number_of_messages 	30
scalar Network900.node50 	discovery_latency 	4776
scalar Network900.node50 	number_of_desired_resources 	20
scalar Network900.node50 	query_homogenity_rate 	33.333333333333
scalar Network900.node50 	qrecord_time 	62528.367869571
scalar Network900.node50 	discovery_resolution_rate 	66.666666666667
scalar Network900.node150 	rate_of_requesters 	1
scalar Network900.node150 	number_of_resources 	49500
scalar Network900.node150 	time_period 	7
scalar Network900.node150 	number_of_messages 	30
scalar Network900.node150 	discovery_latency 	4956
scalar Network900.node150 	number_of_desired_resources 	20
scalar Network900.node150 	query_homogenity_rate 	33.333333333333
scalar Network900.node150 	qrecord_time 	63260.013044328
scalar Network900.node150 	discovery_resolution_rate 	66.666666666667
scalar Network900.node310 	rate_of_requesters 	1
scalar Network900.node310 	number_of_resources 	49500
scalar Network900.node310 	time_period 	8
scalar Network900.node310 	number_of_messages 	9
scalar Network900.node310 	discovery_latency 	5334
scalar Network900.node310 	number_of_desired_resources 	20
scalar Network900.node310 	query_homogenity_rate 	33.333333333333
scalar Network900.node310 	qrecord_time 	63399.623474337
scalar Network900.node310 	discovery_resolution_rate 	33.333333333333
scalar Network900.node430 	rate_of_requesters 	1
scalar Network900.node430 	number_of_resources 	49500
scalar Network900.node430 	time_period 	10
scalar Network900.node430 	number_of_messages 	27
scalar Network900.node430 	discovery_latency 	4932
scalar Network900.node430 	number_of_desired_resources 	20
scalar Network900.node430 	query_homogenity_rate 	33.333333333333
scalar Network900.node430 	qrecord_time 	64619.039399845
scalar Network900.node430 	discovery_resolution_rate 	66.666666666667
scalar Network900.node560 	rate_of_requesters 	1
scalar Network900.node560 	number_of_resources 	49500
scalar Network900.node560 	time_period 	9
scalar Network900.node560 	number_of_messages 	30
scalar Network900.node560 	discovery_latency 	4884
scalar Network900.node560 	number_of_desired_resources 	20
scalar Network900.node560 	query_homogenity_rate 	33.333333333333
scalar Network900.node560 	qrecord_time 	66300.95427782
scalar Network900.node560 	discovery_resolution_rate 	66.666666666667
scalar Network900.node880 	rate_of_requesters 	1
scalar Network900.node880 	number_of_resources 	49500
scalar Network900.node880 	time_period 	10
scalar Network900.node880 	number_of_messages 	37
scalar Network900.node880 	discovery_latency 	4908
scalar Network900.node880 	number_of_desired_resources 	20
scalar Network900.node880 	query_homogenity_rate 	33.333333333333
scalar Network900.node880 	qrecord_time 	66866.438556928
scalar Network900.node880 	discovery_resolution_rate 	66.666666666667
scalar Network900.node150 	rate_of_requesters 	1
scalar Network900.node150 	number_of_resources 	49500
scalar Network900.node150 	time_period 	8
scalar Network900.node150 	number_of_messages 	17
scalar Network900.node150 	discovery_latency 	5064
scalar Network900.node150 	number_of_desired_resources 	20
scalar Network900.node150 	query_homogenity_rate 	33.333333333333
scalar Network900.node150 	qrecord_time 	68879.566204476
scalar Network900.node150 	discovery_resolution_rate 	66.666666666667
scalar Network900.node560 	rate_of_requesters 	1
scalar Network900.node560 	number_of_resources 	49500
scalar Network900.node560 	time_period 	10
scalar Network900.node560 	number_of_messages 	18
scalar Network900.node560 	discovery_latency 	4680
scalar Network900.node560 	number_of_desired_resources 	20
scalar Network900.node560 	query_homogenity_rate 	33.333333333333
scalar Network900.node560 	qrecord_time 	69161.115399941
scalar Network900.node560 	discovery_resolution_rate 	66.666666666667
scalar Network900.node490 	rate_of_requesters 	1
scalar Network900.node490 	number_of_resources 	49500
scalar Network900.node490 	time_period 	10
scalar Network900.node490 	number_of_messages 	18
scalar Network900.node490 	discovery_latency 	5016
scalar Network900.node490 	number_of_desired_resources 	20
scalar Network900.node490 	query_homogenity_rate 	33.333333333333
scalar Network900.node490 	qrecord_time 	71029.06585893
scalar Network900.node490 	discovery_resolution_rate 	66.666666666667
scalar Network900.node150 	rate_of_requesters 	1
scalar Network900.node150 	number_of_resources 	49500
scalar Network900.node150 	time_period 	9
scalar Network900.node150 	number_of_messages 	17
scalar Network900.node150 	discovery_latency 	4800
scalar Network900.node150 	number_of_desired_resources 	20
scalar Network900.node150 	query_homogenity_rate 	33.333333333333
scalar Network900.node150 	qrecord_time 	71087.930414026
scalar Network900.node150 	discovery_resolution_rate 	66.666666666667
scalar Network900.node0 	rate_of_requesters 	1
scalar Network900.node0 	number_of_resources 	49500
scalar Network900.node0 	time_period 	9
scalar Network900.node0 	number_of_messages 	9
scalar Network900.node0 	discovery_latency 	4920
scalar Network900.node0 	number_of_desired_resources 	20
scalar Network900.node0 	query_homogenity_rate 	33.333333333333
scalar Network900.node0 	qrecord_time 	75851.485203526
scalar Network900.node0 	discovery_resolution_rate 	66.666666666667
scalar Network900.node310 	rate_of_requesters 	1
scalar Network900.node310 	number_of_resources 	49500
scalar Network900.node310 	time_period 	9
scalar Network900.node310 	number_of_messages 	17
scalar Network900.node310 	discovery_latency 	5028
scalar Network900.node310 	number_of_desired_resources 	20
scalar Network900.node310 	query_homogenity_rate 	33.333333333333
scalar Network900.node310 	qrecord_time 	76483.058611957
scalar Network900.node310 	discovery_resolution_rate 	66.666666666667
scalar Network900.node760 	rate_of_requesters 	1
scalar Network900.node760 	number_of_resources 	49500
scalar Network900.node760 	time_period 	10
scalar Network900.node760 	number_of_messages 	18
scalar Network900.node760 	discovery_latency 	5088
scalar Network900.node760 	number_of_desired_resources 	20
scalar Network900.node760 	query_homogenity_rate 	33.333333333333
scalar Network900.node760 	qrecord_time 	76564.746941498
scalar Network900.node760 	discovery_resolution_rate 	66.666666666667
scalar Network900.node150 	rate_of_requesters 	1
scalar Network900.node150 	number_of_resources 	49500
scalar Network900.node150 	time_period 	10
scalar Network900.node150 	number_of_messages 	17
scalar Network900.node150 	discovery_latency 	4944
scalar Network900.node150 	number_of_desired_resources 	20
scalar Network900.node150 	query_homogenity_rate 	33.333333333333
scalar Network900.node150 	qrecord_time 	77529.770263733
scalar Network900.node150 	discovery_resolution_rate 	66.666666666667
scalar Network900.node0 	rate_of_requesters 	1
scalar Network900.node0 	number_of_resources 	49500
scalar Network900.node0 	time_period 	10
scalar Network900.node0 	number_of_messages 	10
scalar Network900.node0 	discovery_latency 	4860
scalar Network900.node0 	number_of_desired_resources 	20
scalar Network900.node0 	query_homogenity_rate 	33.333333333333
scalar Network900.node0 	qrecord_time 	83154.641095191
scalar Network900.node0 	discovery_resolution_rate 	66.666666666667
scalar Network900.node310 	rate_of_requesters 	1
scalar Network900.node310 	number_of_resources 	49500
scalar Network900.node310 	time_period 	10
scalar Network900.node310 	number_of_messages 	17
scalar Network900.node310 	discovery_latency 	4956
scalar Network900.node310 	number_of_desired_resources 	20
scalar Network900.node310 	query_homogenity_rate 	33.333333333333
scalar Network900.node310 	qrecord_time 	83361.506639183
scalar Network900.node310 	discovery_resolution_rate 	66.666666666667
