version 2
run net1000-0-20150625-20:39:26-27417
attr as 1
attr configname net1000
attr datetime 20150625-20:39:26
attr dnor 20
attr experiment net1000
attr inifile omnetpp.ini
attr iterationvars "$rhdrq=3, $dnor=20, $as=1"
attr iterationvars2 "$rhdrq=3, $dnor=20, $as=1, $repetition=0"
attr measurement "$rhdrq=3, $dnor=20, $as=1"
attr network Network1000
attr processid 27417
attr repetition 0
attr replication #0
attr resultdir results
attr rhdrq 3
attr runnumber 0
attr seedset 0

scalar . 	as 	1
scalar . 	dnor 	20
scalar . 	rhdrq 	3
scalar Network1000.node50 	rate_of_requesters 	1
scalar Network1000.node50 	number_of_resources 	55000
scalar Network1000.node50 	time_period 	1
scalar Network1000.node50 	number_of_messages 	29
scalar Network1000.node50 	discovery_latency 	252
scalar Network1000.node50 	number_of_desired_resources 	20
scalar Network1000.node50 	query_homogenity_rate 	33.333333333333
scalar Network1000.node50 	qrecord_time 	4990
scalar Network1000.node50 	discovery_resolution_rate 	100
scalar Network1000.node600 	rate_of_requesters 	1
scalar Network1000.node600 	number_of_resources 	55000
scalar Network1000.node600 	time_period 	1
scalar Network1000.node600 	number_of_messages 	101
scalar Network1000.node600 	discovery_latency 	1476
scalar Network1000.node600 	number_of_desired_resources 	20
scalar Network1000.node600 	query_homogenity_rate 	33.333333333333
scalar Network1000.node600 	qrecord_time 	6196
scalar Network1000.node600 	discovery_resolution_rate 	100
scalar Network1000.node760 	rate_of_requesters 	1
scalar Network1000.node760 	number_of_resources 	55000
scalar Network1000.node760 	time_period 	1
scalar Network1000.node760 	number_of_messages 	24
scalar Network1000.node760 	discovery_latency 	6096
scalar Network1000.node760 	number_of_desired_resources 	20
scalar Network1000.node760 	query_homogenity_rate 	33.333333333333
scalar Network1000.node760 	qrecord_time 	10786
scalar Network1000.node760 	discovery_resolution_rate 	66.666666666667
scalar Network1000.node80 	rate_of_requesters 	1
scalar Network1000.node80 	number_of_resources 	55000
scalar Network1000.node80 	time_period 	1
scalar Network1000.node80 	number_of_messages 	21
scalar Network1000.node80 	discovery_latency 	6126
scalar Network1000.node80 	number_of_desired_resources 	20
scalar Network1000.node80 	query_homogenity_rate 	33.333333333333
scalar Network1000.node80 	qrecord_time 	10840
scalar Network1000.node80 	discovery_resolution_rate 	66.666666666667
scalar Network1000.node790 	rate_of_requesters 	1
scalar Network1000.node790 	number_of_resources 	55000
scalar Network1000.node790 	time_period 	1
scalar Network1000.node790 	number_of_messages 	10
scalar Network1000.node790 	discovery_latency 	6174
scalar Network1000.node790 	number_of_desired_resources 	20
scalar Network1000.node790 	query_homogenity_rate 	33.333333333333
scalar Network1000.node790 	qrecord_time 	10882
scalar Network1000.node790 	discovery_resolution_rate 	33.333333333333
scalar Network1000.node440 	rate_of_requesters 	1
scalar Network1000.node440 	number_of_resources 	55000
scalar Network1000.node440 	time_period 	1
scalar Network1000.node440 	number_of_messages 	16
scalar Network1000.node440 	discovery_latency 	6210
scalar Network1000.node440 	number_of_desired_resources 	20
scalar Network1000.node440 	query_homogenity_rate 	33.333333333333
scalar Network1000.node440 	qrecord_time 	10918
scalar Network1000.node440 	discovery_resolution_rate 	33.333333333333
scalar Network1000.node900 	rate_of_requesters 	1
scalar Network1000.node900 	number_of_resources 	55000
scalar Network1000.node900 	time_period 	1
scalar Network1000.node900 	number_of_messages 	43
scalar Network1000.node900 	discovery_latency 	6216
scalar Network1000.node900 	number_of_desired_resources 	20
scalar Network1000.node900 	query_homogenity_rate 	33.333333333333
scalar Network1000.node900 	qrecord_time 	10930
scalar Network1000.node900 	discovery_resolution_rate 	66.666666666667
scalar Network1000.node220 	rate_of_requesters 	1
scalar Network1000.node220 	number_of_resources 	55000
scalar Network1000.node220 	time_period 	1
scalar Network1000.node220 	number_of_messages 	33
scalar Network1000.node220 	discovery_latency 	6216
scalar Network1000.node220 	number_of_desired_resources 	20
scalar Network1000.node220 	query_homogenity_rate 	33.333333333333
scalar Network1000.node220 	qrecord_time 	10948
scalar Network1000.node220 	discovery_resolution_rate 	66.666666666667
scalar Network1000.node380 	rate_of_requesters 	1
scalar Network1000.node380 	number_of_resources 	55000
scalar Network1000.node380 	time_period 	1
scalar Network1000.node380 	number_of_messages 	19
scalar Network1000.node380 	discovery_latency 	6264
scalar Network1000.node380 	number_of_desired_resources 	20
scalar Network1000.node380 	query_homogenity_rate 	33.333333333333
scalar Network1000.node380 	qrecord_time 	10972
scalar Network1000.node380 	discovery_resolution_rate 	33.333333333333
scalar Network1000.node250 	rate_of_requesters 	1
scalar Network1000.node250 	number_of_resources 	55000
scalar Network1000.node250 	time_period 	1
scalar Network1000.node250 	number_of_messages 	25
scalar Network1000.node250 	discovery_latency 	6282
scalar Network1000.node250 	number_of_desired_resources 	20
scalar Network1000.node250 	query_homogenity_rate 	33.333333333333
scalar Network1000.node250 	qrecord_time 	10990
scalar Network1000.node250 	discovery_resolution_rate 	66.666666666667
scalar Network1000.node740 	rate_of_requesters 	1
scalar Network1000.node740 	number_of_resources 	55000
scalar Network1000.node740 	time_period 	1
scalar Network1000.node740 	number_of_messages 	5
scalar Network1000.node740 	discovery_latency 	6264
scalar Network1000.node740 	number_of_desired_resources 	20
scalar Network1000.node740 	query_homogenity_rate 	33.333333333333
scalar Network1000.node740 	qrecord_time 	10990
scalar Network1000.node740 	discovery_resolution_rate 	33.333333333333
scalar Network1000.node170 	rate_of_requesters 	1
scalar Network1000.node170 	number_of_resources 	55000
scalar Network1000.node170 	time_period 	1
scalar Network1000.node170 	number_of_messages 	22
scalar Network1000.node170 	discovery_latency 	6282
scalar Network1000.node170 	number_of_desired_resources 	20
scalar Network1000.node170 	query_homogenity_rate 	33.333333333333
scalar Network1000.node170 	qrecord_time 	10996
scalar Network1000.node170 	discovery_resolution_rate 	66.666666666667
scalar Network1000.node470 	rate_of_requesters 	1
scalar Network1000.node470 	number_of_resources 	55000
scalar Network1000.node470 	time_period 	1
scalar Network1000.node470 	number_of_messages 	4
scalar Network1000.node470 	discovery_latency 	6282
scalar Network1000.node470 	number_of_desired_resources 	20
scalar Network1000.node470 	query_homogenity_rate 	33.333333333333
scalar Network1000.node470 	qrecord_time 	11002
scalar Network1000.node470 	discovery_resolution_rate 	33.333333333333
scalar Network1000.node870 	rate_of_requesters 	1
scalar Network1000.node870 	number_of_resources 	55000
scalar Network1000.node870 	time_period 	1
scalar Network1000.node870 	number_of_messages 	39
scalar Network1000.node870 	discovery_latency 	6258
scalar Network1000.node870 	number_of_desired_resources 	20
scalar Network1000.node870 	query_homogenity_rate 	33.333333333333
scalar Network1000.node870 	qrecord_time 	11008
scalar Network1000.node870 	discovery_resolution_rate 	66.666666666667
scalar Network1000.node930 	rate_of_requesters 	1
scalar Network1000.node930 	number_of_resources 	55000
scalar Network1000.node930 	time_period 	1
scalar Network1000.node930 	number_of_messages 	29
scalar Network1000.node930 	discovery_latency 	6204
scalar Network1000.node930 	number_of_desired_resources 	20
scalar Network1000.node930 	query_homogenity_rate 	33.333333333333
scalar Network1000.node930 	qrecord_time 	11014
scalar Network1000.node930 	discovery_resolution_rate 	66.666666666667
scalar Network1000.node830 	rate_of_requesters 	1
scalar Network1000.node830 	number_of_resources 	55000
scalar Network1000.node830 	time_period 	1
scalar Network1000.node830 	number_of_messages 	6
scalar Network1000.node830 	discovery_latency 	6342
scalar Network1000.node830 	number_of_desired_resources 	20
scalar Network1000.node830 	query_homogenity_rate 	33.333333333333
scalar Network1000.node830 	qrecord_time 	11032
scalar Network1000.node830 	discovery_resolution_rate 	33.333333333333
scalar Network1000.node800 	rate_of_requesters 	1
scalar Network1000.node800 	number_of_resources 	55000
scalar Network1000.node800 	time_period 	1
scalar Network1000.node800 	number_of_messages 	323
scalar Network1000.node800 	discovery_latency 	6270
scalar Network1000.node800 	number_of_desired_resources 	20
scalar Network1000.node800 	query_homogenity_rate 	33.333333333333
scalar Network1000.node800 	qrecord_time 	11038
scalar Network1000.node800 	discovery_resolution_rate 	83.333333333333
scalar Network1000.node960 	rate_of_requesters 	1
scalar Network1000.node960 	number_of_resources 	55000
scalar Network1000.node960 	time_period 	1
scalar Network1000.node960 	number_of_messages 	6
scalar Network1000.node960 	discovery_latency 	6288
scalar Network1000.node960 	number_of_desired_resources 	20
scalar Network1000.node960 	query_homogenity_rate 	33.333333333333
scalar Network1000.node960 	qrecord_time 	11056
scalar Network1000.node960 	discovery_resolution_rate 	33.333333333333
scalar Network1000.node750 	rate_of_requesters 	1
scalar Network1000.node750 	number_of_resources 	55000
scalar Network1000.node750 	time_period 	1
scalar Network1000.node750 	number_of_messages 	7
scalar Network1000.node750 	discovery_latency 	6372
scalar Network1000.node750 	number_of_desired_resources 	20
scalar Network1000.node750 	query_homogenity_rate 	33.333333333333
scalar Network1000.node750 	qrecord_time 	11068
scalar Network1000.node750 	discovery_resolution_rate 	33.333333333333
scalar Network1000.node240 	rate_of_requesters 	1
scalar Network1000.node240 	number_of_resources 	55000
scalar Network1000.node240 	time_period 	1
scalar Network1000.node240 	number_of_messages 	36
scalar Network1000.node240 	discovery_latency 	6390
scalar Network1000.node240 	number_of_desired_resources 	20
scalar Network1000.node240 	query_homogenity_rate 	33.333333333333
scalar Network1000.node240 	qrecord_time 	11080
scalar Network1000.node240 	discovery_resolution_rate 	33.333333333333
scalar Network1000.node850 	rate_of_requesters 	1
scalar Network1000.node850 	number_of_resources 	55000
scalar Network1000.node850 	time_period 	1
scalar Network1000.node850 	number_of_messages 	25
scalar Network1000.node850 	discovery_latency 	6372
scalar Network1000.node850 	number_of_desired_resources 	20
scalar Network1000.node850 	query_homogenity_rate 	33.333333333333
scalar Network1000.node850 	qrecord_time 	11086
scalar Network1000.node850 	discovery_resolution_rate 	33.333333333333
scalar Network1000.node120 	rate_of_requesters 	1
scalar Network1000.node120 	number_of_resources 	55000
scalar Network1000.node120 	time_period 	1
scalar Network1000.node120 	number_of_messages 	4
scalar Network1000.node120 	discovery_latency 	6318
scalar Network1000.node120 	number_of_desired_resources 	20
scalar Network1000.node120 	query_homogenity_rate 	33.333333333333
scalar Network1000.node120 	qrecord_time 	11086
scalar Network1000.node120 	discovery_resolution_rate 	33.333333333333
scalar Network1000.node210 	rate_of_requesters 	1
scalar Network1000.node210 	number_of_resources 	55000
scalar Network1000.node210 	time_period 	1
scalar Network1000.node210 	number_of_messages 	11
scalar Network1000.node210 	discovery_latency 	6372
scalar Network1000.node210 	number_of_desired_resources 	20
scalar Network1000.node210 	query_homogenity_rate 	33.333333333333
scalar Network1000.node210 	qrecord_time 	11104
scalar Network1000.node210 	discovery_resolution_rate 	33.333333333333
scalar Network1000.node290 	rate_of_requesters 	1
scalar Network1000.node290 	number_of_resources 	55000
scalar Network1000.node290 	time_period 	1
scalar Network1000.node290 	number_of_messages 	20
scalar Network1000.node290 	discovery_latency 	6396
scalar Network1000.node290 	number_of_desired_resources 	20
scalar Network1000.node290 	query_homogenity_rate 	33.333333333333
scalar Network1000.node290 	qrecord_time 	11104
scalar Network1000.node290 	discovery_resolution_rate 	33.333333333333
scalar Network1000.node590 	rate_of_requesters 	1
scalar Network1000.node590 	number_of_resources 	55000
scalar Network1000.node590 	time_period 	1
scalar Network1000.node590 	number_of_messages 	4
scalar Network1000.node590 	discovery_latency 	6456
scalar Network1000.node590 	number_of_desired_resources 	20
scalar Network1000.node590 	query_homogenity_rate 	33.333333333333
scalar Network1000.node590 	qrecord_time 	11104
scalar Network1000.node590 	discovery_resolution_rate 	33.333333333333
scalar Network1000.node970 	rate_of_requesters 	1
scalar Network1000.node970 	number_of_resources 	55000
scalar Network1000.node970 	time_period 	1
scalar Network1000.node970 	number_of_messages 	17
scalar Network1000.node970 	discovery_latency 	6378
scalar Network1000.node970 	number_of_desired_resources 	20
scalar Network1000.node970 	query_homogenity_rate 	33.333333333333
scalar Network1000.node970 	qrecord_time 	11110
scalar Network1000.node970 	discovery_resolution_rate 	33.333333333333
scalar Network1000.node570 	rate_of_requesters 	1
scalar Network1000.node570 	number_of_resources 	55000
scalar Network1000.node570 	time_period 	1
scalar Network1000.node570 	number_of_messages 	2
scalar Network1000.node570 	discovery_latency 	6348
scalar Network1000.node570 	number_of_desired_resources 	20
scalar Network1000.node570 	query_homogenity_rate 	33.333333333333
scalar Network1000.node570 	qrecord_time 	11122
scalar Network1000.node570 	discovery_resolution_rate 	0
scalar Network1000.node10 	rate_of_requesters 	1
scalar Network1000.node10 	number_of_resources 	55000
scalar Network1000.node10 	time_period 	1
scalar Network1000.node10 	number_of_messages 	282
scalar Network1000.node10 	discovery_latency 	6390
scalar Network1000.node10 	number_of_desired_resources 	20
scalar Network1000.node10 	query_homogenity_rate 	33.333333333333
scalar Network1000.node10 	qrecord_time 	11122
scalar Network1000.node10 	discovery_resolution_rate 	16.666666666667
scalar Network1000.node370 	rate_of_requesters 	1
scalar Network1000.node370 	number_of_resources 	55000
scalar Network1000.node370 	time_period 	1
scalar Network1000.node370 	number_of_messages 	50
scalar Network1000.node370 	discovery_latency 	6480
scalar Network1000.node370 	number_of_desired_resources 	20
scalar Network1000.node370 	query_homogenity_rate 	33.333333333333
scalar Network1000.node370 	qrecord_time 	11122
scalar Network1000.node370 	discovery_resolution_rate 	66.666666666667
scalar Network1000.node640 	rate_of_requesters 	1
scalar Network1000.node640 	number_of_resources 	55000
scalar Network1000.node640 	time_period 	1
scalar Network1000.node640 	number_of_messages 	5
scalar Network1000.node640 	discovery_latency 	6402
scalar Network1000.node640 	number_of_desired_resources 	20
scalar Network1000.node640 	query_homogenity_rate 	33.333333333333
scalar Network1000.node640 	qrecord_time 	11128
scalar Network1000.node640 	discovery_resolution_rate 	33.333333333333
scalar Network1000.node580 	rate_of_requesters 	1
scalar Network1000.node580 	number_of_resources 	55000
scalar Network1000.node580 	time_period 	1
scalar Network1000.node580 	number_of_messages 	11
scalar Network1000.node580 	discovery_latency 	6432
scalar Network1000.node580 	number_of_desired_resources 	20
scalar Network1000.node580 	query_homogenity_rate 	33.333333333333
scalar Network1000.node580 	qrecord_time 	11140
scalar Network1000.node580 	discovery_resolution_rate 	33.333333333333
scalar Network1000.node950 	rate_of_requesters 	1
scalar Network1000.node950 	number_of_resources 	55000
scalar Network1000.node950 	time_period 	1
scalar Network1000.node950 	number_of_messages 	10
scalar Network1000.node950 	discovery_latency 	6432
scalar Network1000.node950 	number_of_desired_resources 	20
scalar Network1000.node950 	query_homogenity_rate 	33.333333333333
scalar Network1000.node950 	qrecord_time 	11146
scalar Network1000.node950 	discovery_resolution_rate 	66.666666666667
scalar Network1000.node730 	rate_of_requesters 	1
scalar Network1000.node730 	number_of_resources 	55000
scalar Network1000.node730 	time_period 	1
scalar Network1000.node730 	number_of_messages 	20
scalar Network1000.node730 	discovery_latency 	6360
scalar Network1000.node730 	number_of_desired_resources 	20
scalar Network1000.node730 	query_homogenity_rate 	33.333333333333
scalar Network1000.node730 	qrecord_time 	11146
scalar Network1000.node730 	discovery_resolution_rate 	33.333333333333
scalar Network1000.node400 	rate_of_requesters 	1
scalar Network1000.node400 	number_of_resources 	55000
scalar Network1000.node400 	time_period 	1
scalar Network1000.node400 	number_of_messages 	2
scalar Network1000.node400 	discovery_latency 	6486
scalar Network1000.node400 	number_of_desired_resources 	20
scalar Network1000.node400 	query_homogenity_rate 	33.333333333333
scalar Network1000.node400 	qrecord_time 	11152
scalar Network1000.node400 	discovery_resolution_rate 	0
scalar Network1000.node630 	rate_of_requesters 	1
scalar Network1000.node630 	number_of_resources 	55000
scalar Network1000.node630 	time_period 	1
scalar Network1000.node630 	number_of_messages 	6
scalar Network1000.node630 	discovery_latency 	6366
scalar Network1000.node630 	number_of_desired_resources 	20
scalar Network1000.node630 	query_homogenity_rate 	33.333333333333
scalar Network1000.node630 	qrecord_time 	11158
scalar Network1000.node630 	discovery_resolution_rate 	33.333333333333
scalar Network1000.node920 	rate_of_requesters 	1
scalar Network1000.node920 	number_of_resources 	55000
scalar Network1000.node920 	time_period 	1
scalar Network1000.node920 	number_of_messages 	2
scalar Network1000.node920 	discovery_latency 	6432
scalar Network1000.node920 	number_of_desired_resources 	20
scalar Network1000.node920 	query_homogenity_rate 	33.333333333333
scalar Network1000.node920 	qrecord_time 	11164
scalar Network1000.node920 	discovery_resolution_rate 	0
scalar Network1000.node150 	rate_of_requesters 	1
scalar Network1000.node150 	number_of_resources 	55000
scalar Network1000.node150 	time_period 	1
scalar Network1000.node150 	number_of_messages 	2
scalar Network1000.node150 	discovery_latency 	6426
scalar Network1000.node150 	number_of_desired_resources 	20
scalar Network1000.node150 	query_homogenity_rate 	33.333333333333
scalar Network1000.node150 	qrecord_time 	11164
scalar Network1000.node150 	discovery_resolution_rate 	0
scalar Network1000.node490 	rate_of_requesters 	1
scalar Network1000.node490 	number_of_resources 	55000
scalar Network1000.node490 	time_period 	1
scalar Network1000.node490 	number_of_messages 	294
scalar Network1000.node490 	discovery_latency 	6492
scalar Network1000.node490 	number_of_desired_resources 	20
scalar Network1000.node490 	query_homogenity_rate 	33.333333333333
scalar Network1000.node490 	qrecord_time 	11164
scalar Network1000.node490 	discovery_resolution_rate 	16.666666666667
scalar Network1000.node170 	rate_of_requesters 	1
scalar Network1000.node170 	number_of_resources 	55000
scalar Network1000.node170 	time_period 	2
scalar Network1000.node170 	number_of_messages 	8
scalar Network1000.node170 	discovery_latency 	6426
scalar Network1000.node170 	number_of_desired_resources 	20
scalar Network1000.node170 	query_homogenity_rate 	33.333333333333
scalar Network1000.node170 	qrecord_time 	11169.457458289
scalar Network1000.node170 	discovery_resolution_rate 	33.333333333333
scalar Network1000.node30 	rate_of_requesters 	1
scalar Network1000.node30 	number_of_resources 	55000
scalar Network1000.node30 	time_period 	1
scalar Network1000.node30 	number_of_messages 	274
scalar Network1000.node30 	discovery_latency 	6450
scalar Network1000.node30 	number_of_desired_resources 	20
scalar Network1000.node30 	query_homogenity_rate 	33.333333333333
scalar Network1000.node30 	qrecord_time 	11182
scalar Network1000.node30 	discovery_resolution_rate 	16.666666666667
scalar Network1000.node720 	rate_of_requesters 	1
scalar Network1000.node720 	number_of_resources 	55000
scalar Network1000.node720 	time_period 	1
scalar Network1000.node720 	number_of_messages 	2
scalar Network1000.node720 	discovery_latency 	6540
scalar Network1000.node720 	number_of_desired_resources 	20
scalar Network1000.node720 	query_homogenity_rate 	33.333333333333
scalar Network1000.node720 	qrecord_time 	11182
scalar Network1000.node720 	discovery_resolution_rate 	0
scalar Network1000.node60 	rate_of_requesters 	1
scalar Network1000.node60 	number_of_resources 	55000
scalar Network1000.node60 	time_period 	1
scalar Network1000.node60 	number_of_messages 	286
scalar Network1000.node60 	discovery_latency 	6402
scalar Network1000.node60 	number_of_desired_resources 	20
scalar Network1000.node60 	query_homogenity_rate 	33.333333333333
scalar Network1000.node60 	qrecord_time 	11194
scalar Network1000.node60 	discovery_resolution_rate 	50
scalar Network1000.node860 	rate_of_requesters 	1
scalar Network1000.node860 	number_of_resources 	55000
scalar Network1000.node860 	time_period 	1
scalar Network1000.node860 	number_of_messages 	13
scalar Network1000.node860 	discovery_latency 	6444
scalar Network1000.node860 	number_of_desired_resources 	20
scalar Network1000.node860 	query_homogenity_rate 	33.333333333333
scalar Network1000.node860 	qrecord_time 	11200
scalar Network1000.node860 	discovery_resolution_rate 	33.333333333333
scalar Network1000.node140 	rate_of_requesters 	1
scalar Network1000.node140 	number_of_resources 	55000
scalar Network1000.node140 	time_period 	1
scalar Network1000.node140 	number_of_messages 	2
scalar Network1000.node140 	discovery_latency 	6420
scalar Network1000.node140 	number_of_desired_resources 	20
scalar Network1000.node140 	query_homogenity_rate 	33.333333333333
scalar Network1000.node140 	qrecord_time 	11212
scalar Network1000.node140 	discovery_resolution_rate 	0
scalar Network1000.node320 	rate_of_requesters 	1
scalar Network1000.node320 	number_of_resources 	55000
scalar Network1000.node320 	time_period 	1
scalar Network1000.node320 	number_of_messages 	67
scalar Network1000.node320 	discovery_latency 	6504
scalar Network1000.node320 	number_of_desired_resources 	20
scalar Network1000.node320 	query_homogenity_rate 	33.333333333333
scalar Network1000.node320 	qrecord_time 	11212
scalar Network1000.node320 	discovery_resolution_rate 	33.333333333333
scalar Network1000.node540 	rate_of_requesters 	1
scalar Network1000.node540 	number_of_resources 	55000
scalar Network1000.node540 	time_period 	1
scalar Network1000.node540 	number_of_messages 	11
scalar Network1000.node540 	discovery_latency 	6474
scalar Network1000.node540 	number_of_desired_resources 	20
scalar Network1000.node540 	query_homogenity_rate 	33.333333333333
scalar Network1000.node540 	qrecord_time 	11224
scalar Network1000.node540 	discovery_resolution_rate 	33.333333333333
scalar Network1000.node330 	rate_of_requesters 	1
scalar Network1000.node330 	number_of_resources 	55000
scalar Network1000.node330 	time_period 	1
scalar Network1000.node330 	number_of_messages 	12
scalar Network1000.node330 	discovery_latency 	6492
scalar Network1000.node330 	number_of_desired_resources 	20
scalar Network1000.node330 	query_homogenity_rate 	33.333333333333
scalar Network1000.node330 	qrecord_time 	11224
scalar Network1000.node330 	discovery_resolution_rate 	33.333333333333
scalar Network1000.node910 	rate_of_requesters 	1
scalar Network1000.node910 	number_of_resources 	55000
scalar Network1000.node910 	time_period 	1
scalar Network1000.node910 	number_of_messages 	2
scalar Network1000.node910 	discovery_latency 	6456
scalar Network1000.node910 	number_of_desired_resources 	20
scalar Network1000.node910 	query_homogenity_rate 	33.333333333333
scalar Network1000.node910 	qrecord_time 	11230
scalar Network1000.node910 	discovery_resolution_rate 	0
scalar Network1000.node680 	rate_of_requesters 	1
scalar Network1000.node680 	number_of_resources 	55000
scalar Network1000.node680 	time_period 	1
scalar Network1000.node680 	number_of_messages 	2
scalar Network1000.node680 	discovery_latency 	6540
scalar Network1000.node680 	number_of_desired_resources 	20
scalar Network1000.node680 	query_homogenity_rate 	33.333333333333
scalar Network1000.node680 	qrecord_time 	11230
scalar Network1000.node680 	discovery_resolution_rate 	0
scalar Network1000.node300 	rate_of_requesters 	1
scalar Network1000.node300 	number_of_resources 	55000
scalar Network1000.node300 	time_period 	1
scalar Network1000.node300 	number_of_messages 	296
scalar Network1000.node300 	discovery_latency 	6468
scalar Network1000.node300 	number_of_desired_resources 	20
scalar Network1000.node300 	query_homogenity_rate 	33.333333333333
scalar Network1000.node300 	qrecord_time 	11236
scalar Network1000.node300 	discovery_resolution_rate 	16.666666666667
scalar Network1000.node880 	rate_of_requesters 	1
scalar Network1000.node880 	number_of_resources 	55000
scalar Network1000.node880 	time_period 	1
scalar Network1000.node880 	number_of_messages 	13
scalar Network1000.node880 	discovery_latency 	6546
scalar Network1000.node880 	number_of_desired_resources 	20
scalar Network1000.node880 	query_homogenity_rate 	33.333333333333
scalar Network1000.node880 	qrecord_time 	11236
scalar Network1000.node880 	discovery_resolution_rate 	33.333333333333
scalar Network1000.node40 	rate_of_requesters 	1
scalar Network1000.node40 	number_of_resources 	55000
scalar Network1000.node40 	time_period 	1
scalar Network1000.node40 	number_of_messages 	2
scalar Network1000.node40 	discovery_latency 	6528
scalar Network1000.node40 	number_of_desired_resources 	20
scalar Network1000.node40 	query_homogenity_rate 	33.333333333333
scalar Network1000.node40 	qrecord_time 	11248
scalar Network1000.node40 	discovery_resolution_rate 	33.333333333333
scalar Network1000.node130 	rate_of_requesters 	1
scalar Network1000.node130 	number_of_resources 	55000
scalar Network1000.node130 	time_period 	1
scalar Network1000.node130 	number_of_messages 	281
scalar Network1000.node130 	discovery_latency 	6522
scalar Network1000.node130 	number_of_desired_resources 	20
scalar Network1000.node130 	query_homogenity_rate 	33.333333333333
scalar Network1000.node130 	qrecord_time 	11254
scalar Network1000.node130 	discovery_resolution_rate 	50
scalar Network1000.node810 	rate_of_requesters 	1
scalar Network1000.node810 	number_of_resources 	55000
scalar Network1000.node810 	time_period 	1
scalar Network1000.node810 	number_of_messages 	313
scalar Network1000.node810 	discovery_latency 	6540
scalar Network1000.node810 	number_of_desired_resources 	20
scalar Network1000.node810 	query_homogenity_rate 	33.333333333333
scalar Network1000.node810 	qrecord_time 	11254
scalar Network1000.node810 	discovery_resolution_rate 	50
scalar Network1000.node670 	rate_of_requesters 	1
scalar Network1000.node670 	number_of_resources 	55000
scalar Network1000.node670 	time_period 	1
scalar Network1000.node670 	number_of_messages 	2
scalar Network1000.node670 	discovery_latency 	6540
scalar Network1000.node670 	number_of_desired_resources 	20
scalar Network1000.node670 	query_homogenity_rate 	33.333333333333
scalar Network1000.node670 	qrecord_time 	11254
scalar Network1000.node670 	discovery_resolution_rate 	0
scalar Network1000.node310 	rate_of_requesters 	1
scalar Network1000.node310 	number_of_resources 	55000
scalar Network1000.node310 	time_period 	1
scalar Network1000.node310 	number_of_messages 	2
scalar Network1000.node310 	discovery_latency 	6570
scalar Network1000.node310 	number_of_desired_resources 	20
scalar Network1000.node310 	query_homogenity_rate 	33.333333333333
scalar Network1000.node310 	qrecord_time 	11260
scalar Network1000.node310 	discovery_resolution_rate 	0
scalar Network1000.node340 	rate_of_requesters 	1
scalar Network1000.node340 	number_of_resources 	55000
scalar Network1000.node340 	time_period 	1
scalar Network1000.node340 	number_of_messages 	2
scalar Network1000.node340 	discovery_latency 	6516
scalar Network1000.node340 	number_of_desired_resources 	20
scalar Network1000.node340 	query_homogenity_rate 	33.333333333333
scalar Network1000.node340 	qrecord_time 	11272
scalar Network1000.node340 	discovery_resolution_rate 	0
scalar Network1000.node620 	rate_of_requesters 	1
scalar Network1000.node620 	number_of_resources 	55000
scalar Network1000.node620 	time_period 	1
scalar Network1000.node620 	number_of_messages 	2
scalar Network1000.node620 	discovery_latency 	6540
scalar Network1000.node620 	number_of_desired_resources 	20
scalar Network1000.node620 	query_homogenity_rate 	33.333333333333
scalar Network1000.node620 	qrecord_time 	11278
scalar Network1000.node620 	discovery_resolution_rate 	0
scalar Network1000.node940 	rate_of_requesters 	1
scalar Network1000.node940 	number_of_resources 	55000
scalar Network1000.node940 	time_period 	1
scalar Network1000.node940 	number_of_messages 	2
scalar Network1000.node940 	discovery_latency 	6576
scalar Network1000.node940 	number_of_desired_resources 	20
scalar Network1000.node940 	query_homogenity_rate 	33.333333333333
scalar Network1000.node940 	qrecord_time 	11284
scalar Network1000.node940 	discovery_resolution_rate 	0
scalar Network1000.node770 	rate_of_requesters 	1
scalar Network1000.node770 	number_of_resources 	55000
scalar Network1000.node770 	time_period 	1
scalar Network1000.node770 	number_of_messages 	0
scalar Network1000.node770 	discovery_latency 	6564
scalar Network1000.node770 	number_of_desired_resources 	20
scalar Network1000.node770 	query_homogenity_rate 	33.333333333333
scalar Network1000.node770 	qrecord_time 	11284
scalar Network1000.node770 	discovery_resolution_rate 	0
scalar Network1000.node0 	rate_of_requesters 	1
scalar Network1000.node0 	number_of_resources 	55000
scalar Network1000.node0 	time_period 	1
scalar Network1000.node0 	number_of_messages 	5
scalar Network1000.node0 	discovery_latency 	6540
scalar Network1000.node0 	number_of_desired_resources 	20
scalar Network1000.node0 	query_homogenity_rate 	33.333333333333
scalar Network1000.node0 	qrecord_time 	11284
scalar Network1000.node0 	discovery_resolution_rate 	33.333333333333
scalar Network1000.node420 	rate_of_requesters 	1
scalar Network1000.node420 	number_of_resources 	55000
scalar Network1000.node420 	time_period 	2
scalar Network1000.node420 	number_of_messages 	2
scalar Network1000.node420 	discovery_latency 	6480
scalar Network1000.node420 	number_of_desired_resources 	20
scalar Network1000.node420 	query_homogenity_rate 	33.333333333333
scalar Network1000.node420 	qrecord_time 	11288.395263096
scalar Network1000.node420 	discovery_resolution_rate 	0
scalar Network1000.node180 	rate_of_requesters 	1
scalar Network1000.node180 	number_of_resources 	55000
scalar Network1000.node180 	time_period 	1
scalar Network1000.node180 	number_of_messages 	2
scalar Network1000.node180 	discovery_latency 	6552
scalar Network1000.node180 	number_of_desired_resources 	20
scalar Network1000.node180 	query_homogenity_rate 	33.333333333333
scalar Network1000.node180 	qrecord_time 	11290
scalar Network1000.node180 	discovery_resolution_rate 	0
scalar Network1000.node90 	rate_of_requesters 	1
scalar Network1000.node90 	number_of_resources 	55000
scalar Network1000.node90 	time_period 	1
scalar Network1000.node90 	number_of_messages 	10
scalar Network1000.node90 	discovery_latency 	6576
scalar Network1000.node90 	number_of_desired_resources 	20
scalar Network1000.node90 	query_homogenity_rate 	33.333333333333
scalar Network1000.node90 	qrecord_time 	11290
scalar Network1000.node90 	discovery_resolution_rate 	33.333333333333
scalar Network1000.node430 	rate_of_requesters 	1
scalar Network1000.node430 	number_of_resources 	55000
scalar Network1000.node430 	time_period 	1
scalar Network1000.node430 	number_of_messages 	2
scalar Network1000.node430 	discovery_latency 	6564
scalar Network1000.node430 	number_of_desired_resources 	20
scalar Network1000.node430 	query_homogenity_rate 	33.333333333333
scalar Network1000.node430 	qrecord_time 	11290
scalar Network1000.node430 	discovery_resolution_rate 	0
scalar Network1000.node710 	rate_of_requesters 	1
scalar Network1000.node710 	number_of_resources 	55000
scalar Network1000.node710 	time_period 	1
scalar Network1000.node710 	number_of_messages 	2
scalar Network1000.node710 	discovery_latency 	6564
scalar Network1000.node710 	number_of_desired_resources 	20
scalar Network1000.node710 	query_homogenity_rate 	33.333333333333
scalar Network1000.node710 	qrecord_time 	11290
scalar Network1000.node710 	discovery_resolution_rate 	0
scalar Network1000.node500 	rate_of_requesters 	1
scalar Network1000.node500 	number_of_resources 	55000
scalar Network1000.node500 	time_period 	1
scalar Network1000.node500 	number_of_messages 	10
scalar Network1000.node500 	discovery_latency 	6552
scalar Network1000.node500 	number_of_desired_resources 	20
scalar Network1000.node500 	query_homogenity_rate 	33.333333333333
scalar Network1000.node500 	qrecord_time 	11302
scalar Network1000.node500 	discovery_resolution_rate 	66.666666666667
scalar Network1000.node460 	rate_of_requesters 	1
scalar Network1000.node460 	number_of_resources 	55000
scalar Network1000.node460 	time_period 	1
scalar Network1000.node460 	number_of_messages 	2
scalar Network1000.node460 	discovery_latency 	6468
scalar Network1000.node460 	number_of_desired_resources 	20
scalar Network1000.node460 	query_homogenity_rate 	33.333333333333
scalar Network1000.node460 	qrecord_time 	11302
scalar Network1000.node460 	discovery_resolution_rate 	0
scalar Network1000.node840 	rate_of_requesters 	1
scalar Network1000.node840 	number_of_resources 	55000
scalar Network1000.node840 	time_period 	1
scalar Network1000.node840 	number_of_messages 	2
scalar Network1000.node840 	discovery_latency 	6552
scalar Network1000.node840 	number_of_desired_resources 	20
scalar Network1000.node840 	query_homogenity_rate 	33.333333333333
scalar Network1000.node840 	qrecord_time 	11302
scalar Network1000.node840 	discovery_resolution_rate 	0
scalar Network1000.node660 	rate_of_requesters 	1
scalar Network1000.node660 	number_of_resources 	55000
scalar Network1000.node660 	time_period 	1
scalar Network1000.node660 	number_of_messages 	23
scalar Network1000.node660 	discovery_latency 	6552
scalar Network1000.node660 	number_of_desired_resources 	20
scalar Network1000.node660 	query_homogenity_rate 	33.333333333333
scalar Network1000.node660 	qrecord_time 	11302
scalar Network1000.node660 	discovery_resolution_rate 	66.666666666667
scalar Network1000.node690 	rate_of_requesters 	1
scalar Network1000.node690 	number_of_resources 	55000
scalar Network1000.node690 	time_period 	1
scalar Network1000.node690 	number_of_messages 	2
scalar Network1000.node690 	discovery_latency 	6576
scalar Network1000.node690 	number_of_desired_resources 	20
scalar Network1000.node690 	query_homogenity_rate 	33.333333333333
scalar Network1000.node690 	qrecord_time 	11302
scalar Network1000.node690 	discovery_resolution_rate 	0
scalar Network1000.node650 	rate_of_requesters 	1
scalar Network1000.node650 	number_of_resources 	55000
scalar Network1000.node650 	time_period 	1
scalar Network1000.node650 	number_of_messages 	2
scalar Network1000.node650 	discovery_latency 	6576
scalar Network1000.node650 	number_of_desired_resources 	20
scalar Network1000.node650 	query_homogenity_rate 	33.333333333333
scalar Network1000.node650 	qrecord_time 	11308
scalar Network1000.node650 	discovery_resolution_rate 	0
scalar Network1000.node190 	rate_of_requesters 	1
scalar Network1000.node190 	number_of_resources 	55000
scalar Network1000.node190 	time_period 	1
scalar Network1000.node190 	number_of_messages 	6
scalar Network1000.node190 	discovery_latency 	6576
scalar Network1000.node190 	number_of_desired_resources 	20
scalar Network1000.node190 	query_homogenity_rate 	33.333333333333
scalar Network1000.node190 	qrecord_time 	11308
scalar Network1000.node190 	discovery_resolution_rate 	33.333333333333
scalar Network1000.node900 	rate_of_requesters 	1
scalar Network1000.node900 	number_of_resources 	55000
scalar Network1000.node900 	time_period 	2
scalar Network1000.node900 	number_of_messages 	310
scalar Network1000.node900 	discovery_latency 	6576
scalar Network1000.node900 	number_of_desired_resources 	20
scalar Network1000.node900 	query_homogenity_rate 	33.333333333333
scalar Network1000.node900 	qrecord_time 	11312.642200509
scalar Network1000.node900 	discovery_resolution_rate 	50
scalar Network1000.node720 	rate_of_requesters 	1
scalar Network1000.node720 	number_of_resources 	55000
scalar Network1000.node720 	time_period 	2
scalar Network1000.node720 	number_of_messages 	15
scalar Network1000.node720 	discovery_latency 	6600
scalar Network1000.node720 	number_of_desired_resources 	20
scalar Network1000.node720 	query_homogenity_rate 	33.333333333333
scalar Network1000.node720 	qrecord_time 	11319.223455869
scalar Network1000.node720 	discovery_resolution_rate 	33.333333333333
scalar Network1000.node100 	rate_of_requesters 	1
scalar Network1000.node100 	number_of_resources 	55000
scalar Network1000.node100 	time_period 	1
scalar Network1000.node100 	number_of_messages 	8
scalar Network1000.node100 	discovery_latency 	6630
scalar Network1000.node100 	number_of_desired_resources 	20
scalar Network1000.node100 	query_homogenity_rate 	33.333333333333
scalar Network1000.node100 	qrecord_time 	11320
scalar Network1000.node100 	discovery_resolution_rate 	33.333333333333
scalar Network1000.node420 	rate_of_requesters 	1
scalar Network1000.node420 	number_of_resources 	55000
scalar Network1000.node420 	time_period 	1
scalar Network1000.node420 	number_of_messages 	2
scalar Network1000.node420 	discovery_latency 	6570
scalar Network1000.node420 	number_of_desired_resources 	20
scalar Network1000.node420 	query_homogenity_rate 	33.333333333333
scalar Network1000.node420 	qrecord_time 	11320
scalar Network1000.node420 	discovery_resolution_rate 	0
scalar Network1000.node200 	rate_of_requesters 	1
scalar Network1000.node200 	number_of_resources 	55000
scalar Network1000.node200 	time_period 	1
scalar Network1000.node200 	number_of_messages 	2
scalar Network1000.node200 	discovery_latency 	6480
scalar Network1000.node200 	number_of_desired_resources 	20
scalar Network1000.node200 	query_homogenity_rate 	33.333333333333
scalar Network1000.node200 	qrecord_time 	11320
scalar Network1000.node200 	discovery_resolution_rate 	0
scalar Network1000.node110 	rate_of_requesters 	1
scalar Network1000.node110 	number_of_resources 	55000
scalar Network1000.node110 	time_period 	1
scalar Network1000.node110 	number_of_messages 	2
scalar Network1000.node110 	discovery_latency 	6630
scalar Network1000.node110 	number_of_desired_resources 	20
scalar Network1000.node110 	query_homogenity_rate 	33.333333333333
scalar Network1000.node110 	qrecord_time 	11320
scalar Network1000.node110 	discovery_resolution_rate 	0
scalar Network1000.node20 	rate_of_requesters 	1
scalar Network1000.node20 	number_of_resources 	55000
scalar Network1000.node20 	time_period 	1
scalar Network1000.node20 	number_of_messages 	9
scalar Network1000.node20 	discovery_latency 	6564
scalar Network1000.node20 	number_of_desired_resources 	20
scalar Network1000.node20 	query_homogenity_rate 	33.333333333333
scalar Network1000.node20 	qrecord_time 	11338
scalar Network1000.node20 	discovery_resolution_rate 	33.333333333333
scalar Network1000.node610 	rate_of_requesters 	1
scalar Network1000.node610 	number_of_resources 	55000
scalar Network1000.node610 	time_period 	1
scalar Network1000.node610 	number_of_messages 	2
scalar Network1000.node610 	discovery_latency 	6612
scalar Network1000.node610 	number_of_desired_resources 	20
scalar Network1000.node610 	query_homogenity_rate 	33.333333333333
scalar Network1000.node610 	qrecord_time 	11338
scalar Network1000.node610 	discovery_resolution_rate 	0
scalar Network1000.node390 	rate_of_requesters 	1
scalar Network1000.node390 	number_of_resources 	55000
scalar Network1000.node390 	time_period 	1
scalar Network1000.node390 	number_of_messages 	2
scalar Network1000.node390 	discovery_latency 	6636
scalar Network1000.node390 	number_of_desired_resources 	20
scalar Network1000.node390 	query_homogenity_rate 	33.333333333333
scalar Network1000.node390 	qrecord_time 	11350
scalar Network1000.node390 	discovery_resolution_rate 	0
scalar Network1000.node780 	rate_of_requesters 	1
scalar Network1000.node780 	number_of_resources 	55000
scalar Network1000.node780 	time_period 	2
scalar Network1000.node780 	number_of_messages 	2
scalar Network1000.node780 	discovery_latency 	6348
scalar Network1000.node780 	number_of_desired_resources 	20
scalar Network1000.node780 	query_homogenity_rate 	33.333333333333
scalar Network1000.node780 	qrecord_time 	11356.705818665
scalar Network1000.node780 	discovery_resolution_rate 	0
scalar Network1000.node420 	rate_of_requesters 	1
scalar Network1000.node420 	number_of_resources 	55000
scalar Network1000.node420 	time_period 	3
scalar Network1000.node420 	number_of_messages 	296
scalar Network1000.node420 	discovery_latency 	6480
scalar Network1000.node420 	number_of_desired_resources 	20
scalar Network1000.node420 	query_homogenity_rate 	33.333333333333
scalar Network1000.node420 	qrecord_time 	11356.873732895
scalar Network1000.node420 	discovery_resolution_rate 	16.666666666667
scalar Network1000.node480 	rate_of_requesters 	1
scalar Network1000.node480 	number_of_resources 	55000
scalar Network1000.node480 	time_period 	1
scalar Network1000.node480 	number_of_messages 	4
scalar Network1000.node480 	discovery_latency 	6612
scalar Network1000.node480 	number_of_desired_resources 	20
scalar Network1000.node480 	query_homogenity_rate 	33.333333333333
scalar Network1000.node480 	qrecord_time 	11362
scalar Network1000.node480 	discovery_resolution_rate 	33.333333333333
scalar Network1000.node450 	rate_of_requesters 	1
scalar Network1000.node450 	number_of_resources 	55000
scalar Network1000.node450 	time_period 	1
scalar Network1000.node450 	number_of_messages 	9
scalar Network1000.node450 	discovery_latency 	6720
scalar Network1000.node450 	number_of_desired_resources 	20
scalar Network1000.node450 	query_homogenity_rate 	33.333333333333
scalar Network1000.node450 	qrecord_time 	11362
scalar Network1000.node450 	discovery_resolution_rate 	33.333333333333
scalar Network1000.node990 	rate_of_requesters 	1
scalar Network1000.node990 	number_of_resources 	55000
scalar Network1000.node990 	time_period 	1
scalar Network1000.node990 	number_of_messages 	2
scalar Network1000.node990 	discovery_latency 	6588
scalar Network1000.node990 	number_of_desired_resources 	20
scalar Network1000.node990 	query_homogenity_rate 	33.333333333333
scalar Network1000.node990 	qrecord_time 	11362
scalar Network1000.node990 	discovery_resolution_rate 	0
scalar Network1000.node820 	rate_of_requesters 	1
scalar Network1000.node820 	number_of_resources 	55000
scalar Network1000.node820 	time_period 	1
scalar Network1000.node820 	number_of_messages 	359
scalar Network1000.node820 	discovery_latency 	6612
scalar Network1000.node820 	number_of_desired_resources 	20
scalar Network1000.node820 	query_homogenity_rate 	33.333333333333
scalar Network1000.node820 	qrecord_time 	11368
scalar Network1000.node820 	discovery_resolution_rate 	50
scalar Network1000.node780 	rate_of_requesters 	1
scalar Network1000.node780 	number_of_resources 	55000
scalar Network1000.node780 	time_period 	1
scalar Network1000.node780 	number_of_messages 	2
scalar Network1000.node780 	discovery_latency 	6528
scalar Network1000.node780 	number_of_desired_resources 	20
scalar Network1000.node780 	query_homogenity_rate 	33.333333333333
scalar Network1000.node780 	qrecord_time 	11380
scalar Network1000.node780 	discovery_resolution_rate 	0
scalar Network1000.node260 	rate_of_requesters 	1
scalar Network1000.node260 	number_of_resources 	55000
scalar Network1000.node260 	time_period 	1
scalar Network1000.node260 	number_of_messages 	6
scalar Network1000.node260 	discovery_latency 	6612
scalar Network1000.node260 	number_of_desired_resources 	20
scalar Network1000.node260 	query_homogenity_rate 	33.333333333333
scalar Network1000.node260 	qrecord_time 	11380
scalar Network1000.node260 	discovery_resolution_rate 	33.333333333333
scalar Network1000.node530 	rate_of_requesters 	1
scalar Network1000.node530 	number_of_resources 	55000
scalar Network1000.node530 	time_period 	1
scalar Network1000.node530 	number_of_messages 	2
scalar Network1000.node530 	discovery_latency 	6636
scalar Network1000.node530 	number_of_desired_resources 	20
scalar Network1000.node530 	query_homogenity_rate 	33.333333333333
scalar Network1000.node530 	qrecord_time 	11386
scalar Network1000.node530 	discovery_resolution_rate 	0
scalar Network1000.node510 	rate_of_requesters 	1
scalar Network1000.node510 	number_of_resources 	55000
scalar Network1000.node510 	time_period 	1
scalar Network1000.node510 	number_of_messages 	2
scalar Network1000.node510 	discovery_latency 	6540
scalar Network1000.node510 	number_of_desired_resources 	20
scalar Network1000.node510 	query_homogenity_rate 	33.333333333333
scalar Network1000.node510 	qrecord_time 	11392
scalar Network1000.node510 	discovery_resolution_rate 	0
scalar Network1000.node410 	rate_of_requesters 	1
scalar Network1000.node410 	number_of_resources 	55000
scalar Network1000.node410 	time_period 	1
scalar Network1000.node410 	number_of_messages 	18
scalar Network1000.node410 	discovery_latency 	6684
scalar Network1000.node410 	number_of_desired_resources 	20
scalar Network1000.node410 	query_homogenity_rate 	33.333333333333
scalar Network1000.node410 	qrecord_time 	11404
scalar Network1000.node410 	discovery_resolution_rate 	33.333333333333
scalar Network1000.node980 	rate_of_requesters 	1
scalar Network1000.node980 	number_of_resources 	55000
scalar Network1000.node980 	time_period 	1
scalar Network1000.node980 	number_of_messages 	2
scalar Network1000.node980 	discovery_latency 	6528
scalar Network1000.node980 	number_of_desired_resources 	20
scalar Network1000.node980 	query_homogenity_rate 	33.333333333333
scalar Network1000.node980 	qrecord_time 	11422
scalar Network1000.node980 	discovery_resolution_rate 	0
scalar Network1000.node890 	rate_of_requesters 	1
scalar Network1000.node890 	number_of_resources 	55000
scalar Network1000.node890 	time_period 	1
scalar Network1000.node890 	number_of_messages 	304
scalar Network1000.node890 	discovery_latency 	6708
scalar Network1000.node890 	number_of_desired_resources 	20
scalar Network1000.node890 	query_homogenity_rate 	33.333333333333
scalar Network1000.node890 	qrecord_time 	11434
scalar Network1000.node890 	discovery_resolution_rate 	50
scalar Network1000.node560 	rate_of_requesters 	1
scalar Network1000.node560 	number_of_resources 	55000
scalar Network1000.node560 	time_period 	1
scalar Network1000.node560 	number_of_messages 	2
scalar Network1000.node560 	discovery_latency 	6624
scalar Network1000.node560 	number_of_desired_resources 	20
scalar Network1000.node560 	query_homogenity_rate 	33.333333333333
scalar Network1000.node560 	qrecord_time 	11440
scalar Network1000.node560 	discovery_resolution_rate 	0
scalar Network1000.node350 	rate_of_requesters 	1
scalar Network1000.node350 	number_of_resources 	55000
scalar Network1000.node350 	time_period 	1
scalar Network1000.node350 	number_of_messages 	2
scalar Network1000.node350 	discovery_latency 	6732
scalar Network1000.node350 	number_of_desired_resources 	20
scalar Network1000.node350 	query_homogenity_rate 	33.333333333333
scalar Network1000.node350 	qrecord_time 	11440
scalar Network1000.node350 	discovery_resolution_rate 	0
scalar Network1000.node360 	rate_of_requesters 	1
scalar Network1000.node360 	number_of_resources 	55000
scalar Network1000.node360 	time_period 	1
scalar Network1000.node360 	number_of_messages 	12
scalar Network1000.node360 	discovery_latency 	6708
scalar Network1000.node360 	number_of_desired_resources 	20
scalar Network1000.node360 	query_homogenity_rate 	33.333333333333
scalar Network1000.node360 	qrecord_time 	11440
scalar Network1000.node360 	discovery_resolution_rate 	33.333333333333
scalar Network1000.node210 	rate_of_requesters 	1
scalar Network1000.node210 	number_of_resources 	55000
scalar Network1000.node210 	time_period 	2
scalar Network1000.node210 	number_of_messages 	2
scalar Network1000.node210 	discovery_latency 	6630
scalar Network1000.node210 	number_of_desired_resources 	20
scalar Network1000.node210 	query_homogenity_rate 	33.333333333333
scalar Network1000.node210 	qrecord_time 	11442.425193035
scalar Network1000.node210 	discovery_resolution_rate 	0
scalar Network1000.node160 	rate_of_requesters 	1
scalar Network1000.node160 	number_of_resources 	55000
scalar Network1000.node160 	time_period 	1
scalar Network1000.node160 	number_of_messages 	16
scalar Network1000.node160 	discovery_latency 	6696
scalar Network1000.node160 	number_of_desired_resources 	20
scalar Network1000.node160 	query_homogenity_rate 	33.333333333333
scalar Network1000.node160 	qrecord_time 	11446
scalar Network1000.node160 	discovery_resolution_rate 	33.333333333333
scalar Network1000.node940 	rate_of_requesters 	1
scalar Network1000.node940 	number_of_resources 	55000
scalar Network1000.node940 	time_period 	2
scalar Network1000.node940 	number_of_messages 	2
scalar Network1000.node940 	discovery_latency 	6588
scalar Network1000.node940 	number_of_desired_resources 	20
scalar Network1000.node940 	query_homogenity_rate 	33.333333333333
scalar Network1000.node940 	qrecord_time 	11453.829123598
scalar Network1000.node940 	discovery_resolution_rate 	0
scalar Network1000.node240 	rate_of_requesters 	1
scalar Network1000.node240 	number_of_resources 	55000
scalar Network1000.node240 	time_period 	2
scalar Network1000.node240 	number_of_messages 	2
scalar Network1000.node240 	discovery_latency 	6576
scalar Network1000.node240 	number_of_desired_resources 	20
scalar Network1000.node240 	query_homogenity_rate 	33.333333333333
scalar Network1000.node240 	qrecord_time 	11456.886789891
scalar Network1000.node240 	discovery_resolution_rate 	0
scalar Network1000.node270 	rate_of_requesters 	1
scalar Network1000.node270 	number_of_resources 	55000
scalar Network1000.node270 	time_period 	1
scalar Network1000.node270 	number_of_messages 	2
scalar Network1000.node270 	discovery_latency 	6636
scalar Network1000.node270 	number_of_desired_resources 	20
scalar Network1000.node270 	query_homogenity_rate 	33.333333333333
scalar Network1000.node270 	qrecord_time 	11458
scalar Network1000.node270 	discovery_resolution_rate 	0
scalar Network1000.node70 	rate_of_requesters 	1
scalar Network1000.node70 	number_of_resources 	55000
scalar Network1000.node70 	time_period 	1
scalar Network1000.node70 	number_of_messages 	9
scalar Network1000.node70 	discovery_latency 	6744
scalar Network1000.node70 	number_of_desired_resources 	20
scalar Network1000.node70 	query_homogenity_rate 	33.333333333333
scalar Network1000.node70 	qrecord_time 	11458
scalar Network1000.node70 	discovery_resolution_rate 	33.333333333333
scalar Network1000.node520 	rate_of_requesters 	1
scalar Network1000.node520 	number_of_resources 	55000
scalar Network1000.node520 	time_period 	1
scalar Network1000.node520 	number_of_messages 	2
scalar Network1000.node520 	discovery_latency 	6708
scalar Network1000.node520 	number_of_desired_resources 	20
scalar Network1000.node520 	query_homogenity_rate 	33.333333333333
scalar Network1000.node520 	qrecord_time 	11470
scalar Network1000.node520 	discovery_resolution_rate 	0
scalar Network1000.node700 	rate_of_requesters 	1
scalar Network1000.node700 	number_of_resources 	55000
scalar Network1000.node700 	time_period 	1
scalar Network1000.node700 	number_of_messages 	9
scalar Network1000.node700 	discovery_latency 	6756
scalar Network1000.node700 	number_of_desired_resources 	20
scalar Network1000.node700 	query_homogenity_rate 	33.333333333333
scalar Network1000.node700 	qrecord_time 	11470
scalar Network1000.node700 	discovery_resolution_rate 	33.333333333333
scalar Network1000.node280 	rate_of_requesters 	1
scalar Network1000.node280 	number_of_resources 	55000
scalar Network1000.node280 	time_period 	1
scalar Network1000.node280 	number_of_messages 	2
scalar Network1000.node280 	discovery_latency 	6732
scalar Network1000.node280 	number_of_desired_resources 	20
scalar Network1000.node280 	query_homogenity_rate 	33.333333333333
scalar Network1000.node280 	qrecord_time 	11500
scalar Network1000.node280 	discovery_resolution_rate 	0
scalar Network1000.node550 	rate_of_requesters 	1
scalar Network1000.node550 	number_of_resources 	55000
scalar Network1000.node550 	time_period 	1
scalar Network1000.node550 	number_of_messages 	43
scalar Network1000.node550 	discovery_latency 	6744
scalar Network1000.node550 	number_of_desired_resources 	20
scalar Network1000.node550 	query_homogenity_rate 	33.333333333333
scalar Network1000.node550 	qrecord_time 	11530
scalar Network1000.node550 	discovery_resolution_rate 	66.666666666667
scalar Network1000.node230 	rate_of_requesters 	1
scalar Network1000.node230 	number_of_resources 	55000
scalar Network1000.node230 	time_period 	1
scalar Network1000.node230 	number_of_messages 	2
scalar Network1000.node230 	discovery_latency 	6696
scalar Network1000.node230 	number_of_desired_resources 	20
scalar Network1000.node230 	query_homogenity_rate 	33.333333333333
scalar Network1000.node230 	qrecord_time 	11530
scalar Network1000.node230 	discovery_resolution_rate 	0
scalar Network1000.node530 	rate_of_requesters 	1
scalar Network1000.node530 	number_of_resources 	55000
scalar Network1000.node530 	time_period 	2
scalar Network1000.node530 	number_of_messages 	2
scalar Network1000.node530 	discovery_latency 	6396
scalar Network1000.node530 	number_of_desired_resources 	20
scalar Network1000.node530 	query_homogenity_rate 	33.333333333333
scalar Network1000.node530 	qrecord_time 	11538.223689273
scalar Network1000.node530 	discovery_resolution_rate 	0
scalar Network1000.node180 	rate_of_requesters 	1
scalar Network1000.node180 	number_of_resources 	55000
scalar Network1000.node180 	time_period 	2
scalar Network1000.node180 	number_of_messages 	2
scalar Network1000.node180 	discovery_latency 	6504
scalar Network1000.node180 	number_of_desired_resources 	20
scalar Network1000.node180 	query_homogenity_rate 	33.333333333333
scalar Network1000.node180 	qrecord_time 	11616.34746503
scalar Network1000.node180 	discovery_resolution_rate 	0
scalar Network1000.node730 	rate_of_requesters 	1
scalar Network1000.node730 	number_of_resources 	55000
scalar Network1000.node730 	time_period 	2
scalar Network1000.node730 	number_of_messages 	2
scalar Network1000.node730 	discovery_latency 	6558
scalar Network1000.node730 	number_of_desired_resources 	20
scalar Network1000.node730 	query_homogenity_rate 	33.333333333333
scalar Network1000.node730 	qrecord_time 	11645.710185555
scalar Network1000.node730 	discovery_resolution_rate 	0
scalar Network1000.node670 	rate_of_requesters 	1
scalar Network1000.node670 	number_of_resources 	55000
scalar Network1000.node670 	time_period 	2
scalar Network1000.node670 	number_of_messages 	2
scalar Network1000.node670 	discovery_latency 	6540
scalar Network1000.node670 	number_of_desired_resources 	20
scalar Network1000.node670 	query_homogenity_rate 	33.333333333333
scalar Network1000.node670 	qrecord_time 	11649.165374653
scalar Network1000.node670 	discovery_resolution_rate 	0
scalar Network1000.node930 	rate_of_requesters 	1
scalar Network1000.node930 	number_of_resources 	55000
scalar Network1000.node930 	time_period 	2
scalar Network1000.node930 	number_of_messages 	2
scalar Network1000.node930 	discovery_latency 	6444
scalar Network1000.node930 	number_of_desired_resources 	20
scalar Network1000.node930 	query_homogenity_rate 	33.333333333333
scalar Network1000.node930 	qrecord_time 	11766.313028136
scalar Network1000.node930 	discovery_resolution_rate 	0
scalar Network1000.node910 	rate_of_requesters 	1
scalar Network1000.node910 	number_of_resources 	55000
scalar Network1000.node910 	time_period 	2
scalar Network1000.node910 	number_of_messages 	2
scalar Network1000.node910 	discovery_latency 	6552
scalar Network1000.node910 	number_of_desired_resources 	20
scalar Network1000.node910 	query_homogenity_rate 	33.333333333333
scalar Network1000.node910 	qrecord_time 	11791.780446734
scalar Network1000.node910 	discovery_resolution_rate 	0
scalar Network1000.node180 	rate_of_requesters 	1
scalar Network1000.node180 	number_of_resources 	55000
scalar Network1000.node180 	time_period 	3
scalar Network1000.node180 	number_of_messages 	2
scalar Network1000.node180 	discovery_latency 	6504
scalar Network1000.node180 	number_of_desired_resources 	20
scalar Network1000.node180 	query_homogenity_rate 	33.333333333333
scalar Network1000.node180 	qrecord_time 	11809.165973967
scalar Network1000.node180 	discovery_resolution_rate 	0
scalar Network1000.node540 	rate_of_requesters 	1
scalar Network1000.node540 	number_of_resources 	55000
scalar Network1000.node540 	time_period 	2
scalar Network1000.node540 	number_of_messages 	2
scalar Network1000.node540 	discovery_latency 	6684
scalar Network1000.node540 	number_of_desired_resources 	20
scalar Network1000.node540 	query_homogenity_rate 	33.333333333333
scalar Network1000.node540 	qrecord_time 	11900.804931419
scalar Network1000.node540 	discovery_resolution_rate 	0
scalar Network1000.node340 	rate_of_requesters 	1
scalar Network1000.node340 	number_of_resources 	55000
scalar Network1000.node340 	time_period 	2
scalar Network1000.node340 	number_of_messages 	2
scalar Network1000.node340 	discovery_latency 	6576
scalar Network1000.node340 	number_of_desired_resources 	20
scalar Network1000.node340 	query_homogenity_rate 	33.333333333333
scalar Network1000.node340 	qrecord_time 	11903.459209159
scalar Network1000.node340 	discovery_resolution_rate 	0
scalar Network1000.node760 	rate_of_requesters 	1
scalar Network1000.node760 	number_of_resources 	55000
scalar Network1000.node760 	time_period 	2
scalar Network1000.node760 	number_of_messages 	2
scalar Network1000.node760 	discovery_latency 	6588
scalar Network1000.node760 	number_of_desired_resources 	20
scalar Network1000.node760 	query_homogenity_rate 	33.333333333333
scalar Network1000.node760 	qrecord_time 	11943.18574805
scalar Network1000.node760 	discovery_resolution_rate 	0
scalar Network1000.node670 	rate_of_requesters 	1
scalar Network1000.node670 	number_of_resources 	55000
scalar Network1000.node670 	time_period 	3
scalar Network1000.node670 	number_of_messages 	2
scalar Network1000.node670 	discovery_latency 	6408
scalar Network1000.node670 	number_of_desired_resources 	20
scalar Network1000.node670 	query_homogenity_rate 	33.333333333333
scalar Network1000.node670 	qrecord_time 	11955.313698216
scalar Network1000.node670 	discovery_resolution_rate 	0
scalar Network1000.node580 	rate_of_requesters 	1
scalar Network1000.node580 	number_of_resources 	55000
scalar Network1000.node580 	time_period 	2
scalar Network1000.node580 	number_of_messages 	2
scalar Network1000.node580 	discovery_latency 	6504
scalar Network1000.node580 	number_of_desired_resources 	20
scalar Network1000.node580 	query_homogenity_rate 	33.333333333333
scalar Network1000.node580 	qrecord_time 	12021.553122511
scalar Network1000.node580 	discovery_resolution_rate 	0
scalar Network1000.node500 	rate_of_requesters 	1
scalar Network1000.node500 	number_of_resources 	55000
scalar Network1000.node500 	time_period 	2
scalar Network1000.node500 	number_of_messages 	2
scalar Network1000.node500 	discovery_latency 	6636
scalar Network1000.node500 	number_of_desired_resources 	20
scalar Network1000.node500 	query_homogenity_rate 	33.333333333333
scalar Network1000.node500 	qrecord_time 	12046.397417179
scalar Network1000.node500 	discovery_resolution_rate 	0
scalar Network1000.node790 	rate_of_requesters 	1
scalar Network1000.node790 	number_of_resources 	55000
scalar Network1000.node790 	time_period 	2
scalar Network1000.node790 	number_of_messages 	2
scalar Network1000.node790 	discovery_latency 	6540
scalar Network1000.node790 	number_of_desired_resources 	20
scalar Network1000.node790 	query_homogenity_rate 	33.333333333333
scalar Network1000.node790 	qrecord_time 	12059.364920202
scalar Network1000.node790 	discovery_resolution_rate 	0
scalar Network1000.node780 	rate_of_requesters 	1
scalar Network1000.node780 	number_of_resources 	55000
scalar Network1000.node780 	time_period 	3
scalar Network1000.node780 	number_of_messages 	2
scalar Network1000.node780 	discovery_latency 	6588
scalar Network1000.node780 	number_of_desired_resources 	20
scalar Network1000.node780 	query_homogenity_rate 	33.333333333333
scalar Network1000.node780 	qrecord_time 	12078.41335526
scalar Network1000.node780 	discovery_resolution_rate 	0
scalar Network1000.node680 	rate_of_requesters 	1
scalar Network1000.node680 	number_of_resources 	55000
scalar Network1000.node680 	time_period 	2
scalar Network1000.node680 	number_of_messages 	2
scalar Network1000.node680 	discovery_latency 	6366
scalar Network1000.node680 	number_of_desired_resources 	20
scalar Network1000.node680 	query_homogenity_rate 	33.333333333333
scalar Network1000.node680 	qrecord_time 	12080.048349599
scalar Network1000.node680 	discovery_resolution_rate 	0
scalar Network1000.node960 	rate_of_requesters 	1
scalar Network1000.node960 	number_of_resources 	55000
scalar Network1000.node960 	time_period 	2
scalar Network1000.node960 	number_of_messages 	2
scalar Network1000.node960 	discovery_latency 	6420
scalar Network1000.node960 	number_of_desired_resources 	20
scalar Network1000.node960 	query_homogenity_rate 	33.333333333333
scalar Network1000.node960 	qrecord_time 	12120.773551106
scalar Network1000.node960 	discovery_resolution_rate 	0
scalar Network1000.node530 	rate_of_requesters 	1
scalar Network1000.node530 	number_of_resources 	55000
scalar Network1000.node530 	time_period 	3
scalar Network1000.node530 	number_of_messages 	2
scalar Network1000.node530 	discovery_latency 	6480
scalar Network1000.node530 	number_of_desired_resources 	20
scalar Network1000.node530 	query_homogenity_rate 	33.333333333333
scalar Network1000.node530 	qrecord_time 	12141.20083952
scalar Network1000.node530 	discovery_resolution_rate 	0
scalar Network1000.node300 	rate_of_requesters 	1
scalar Network1000.node300 	number_of_resources 	55000
scalar Network1000.node300 	time_period 	2
scalar Network1000.node300 	number_of_messages 	2
scalar Network1000.node300 	discovery_latency 	6624
scalar Network1000.node300 	number_of_desired_resources 	20
scalar Network1000.node300 	query_homogenity_rate 	33.333333333333
scalar Network1000.node300 	qrecord_time 	12147.885938079
scalar Network1000.node300 	discovery_resolution_rate 	0
scalar Network1000.node620 	rate_of_requesters 	1
scalar Network1000.node620 	number_of_resources 	55000
scalar Network1000.node620 	time_period 	2
scalar Network1000.node620 	number_of_messages 	2
scalar Network1000.node620 	discovery_latency 	6528
scalar Network1000.node620 	number_of_desired_resources 	20
scalar Network1000.node620 	query_homogenity_rate 	33.333333333333
scalar Network1000.node620 	qrecord_time 	12152.331364326
scalar Network1000.node620 	discovery_resolution_rate 	0
scalar Network1000.node830 	rate_of_requesters 	1
scalar Network1000.node830 	number_of_resources 	55000
scalar Network1000.node830 	time_period 	2
scalar Network1000.node830 	number_of_messages 	2
scalar Network1000.node830 	discovery_latency 	6516
scalar Network1000.node830 	number_of_desired_resources 	20
scalar Network1000.node830 	query_homogenity_rate 	33.333333333333
scalar Network1000.node830 	qrecord_time 	12208.113003404
scalar Network1000.node830 	discovery_resolution_rate 	0
scalar Network1000.node980 	rate_of_requesters 	1
scalar Network1000.node980 	number_of_resources 	55000
scalar Network1000.node980 	time_period 	2
scalar Network1000.node980 	number_of_messages 	2
scalar Network1000.node980 	discovery_latency 	6576
scalar Network1000.node980 	number_of_desired_resources 	20
scalar Network1000.node980 	query_homogenity_rate 	33.333333333333
scalar Network1000.node980 	qrecord_time 	12215.082343186
scalar Network1000.node980 	discovery_resolution_rate 	0
scalar Network1000.node960 	rate_of_requesters 	1
scalar Network1000.node960 	number_of_resources 	55000
scalar Network1000.node960 	time_period 	3
scalar Network1000.node960 	number_of_messages 	2
scalar Network1000.node960 	discovery_latency 	6342
scalar Network1000.node960 	number_of_desired_resources 	20
scalar Network1000.node960 	query_homogenity_rate 	33.333333333333
scalar Network1000.node960 	qrecord_time 	12305.313828371
scalar Network1000.node960 	discovery_resolution_rate 	0
scalar Network1000.node230 	rate_of_requesters 	1
scalar Network1000.node230 	number_of_resources 	55000
scalar Network1000.node230 	time_period 	2
scalar Network1000.node230 	number_of_messages 	2
scalar Network1000.node230 	discovery_latency 	6660
scalar Network1000.node230 	number_of_desired_resources 	20
scalar Network1000.node230 	query_homogenity_rate 	33.333333333333
scalar Network1000.node230 	qrecord_time 	12320.934050268
scalar Network1000.node230 	discovery_resolution_rate 	0
scalar Network1000.node320 	rate_of_requesters 	1
scalar Network1000.node320 	number_of_resources 	55000
scalar Network1000.node320 	time_period 	2
scalar Network1000.node320 	number_of_messages 	2
scalar Network1000.node320 	discovery_latency 	6552
scalar Network1000.node320 	number_of_desired_resources 	20
scalar Network1000.node320 	query_homogenity_rate 	33.333333333333
scalar Network1000.node320 	qrecord_time 	12387.879203831
scalar Network1000.node320 	discovery_resolution_rate 	0
scalar Network1000.node790 	rate_of_requesters 	1
scalar Network1000.node790 	number_of_resources 	55000
scalar Network1000.node790 	time_period 	3
scalar Network1000.node790 	number_of_messages 	2
scalar Network1000.node790 	discovery_latency 	6528
scalar Network1000.node790 	number_of_desired_resources 	20
scalar Network1000.node790 	query_homogenity_rate 	33.333333333333
scalar Network1000.node790 	qrecord_time 	12402.677270062
scalar Network1000.node790 	discovery_resolution_rate 	0
scalar Network1000.node370 	rate_of_requesters 	1
scalar Network1000.node370 	number_of_resources 	55000
scalar Network1000.node370 	time_period 	2
scalar Network1000.node370 	number_of_messages 	2
scalar Network1000.node370 	discovery_latency 	6672
scalar Network1000.node370 	number_of_desired_resources 	20
scalar Network1000.node370 	query_homogenity_rate 	33.333333333333
scalar Network1000.node370 	qrecord_time 	12415.926745602
scalar Network1000.node370 	discovery_resolution_rate 	0
scalar Network1000.node880 	rate_of_requesters 	1
scalar Network1000.node880 	number_of_resources 	55000
scalar Network1000.node880 	time_period 	2
scalar Network1000.node880 	number_of_messages 	2
scalar Network1000.node880 	discovery_latency 	6708
scalar Network1000.node880 	number_of_desired_resources 	20
scalar Network1000.node880 	query_homogenity_rate 	33.333333333333
scalar Network1000.node880 	qrecord_time 	12424.328496097
scalar Network1000.node880 	discovery_resolution_rate 	0
scalar Network1000.node970 	rate_of_requesters 	1
scalar Network1000.node970 	number_of_resources 	55000
scalar Network1000.node970 	time_period 	2
scalar Network1000.node970 	number_of_messages 	2
scalar Network1000.node970 	discovery_latency 	6432
scalar Network1000.node970 	number_of_desired_resources 	20
scalar Network1000.node970 	query_homogenity_rate 	33.333333333333
scalar Network1000.node970 	qrecord_time 	12562.057859228
scalar Network1000.node970 	discovery_resolution_rate 	0
scalar Network1000.node550 	rate_of_requesters 	1
scalar Network1000.node550 	number_of_resources 	55000
scalar Network1000.node550 	time_period 	2
scalar Network1000.node550 	number_of_messages 	2
scalar Network1000.node550 	discovery_latency 	6516
scalar Network1000.node550 	number_of_desired_resources 	20
scalar Network1000.node550 	query_homogenity_rate 	33.333333333333
scalar Network1000.node550 	qrecord_time 	12618.818308111
scalar Network1000.node550 	discovery_resolution_rate 	0
scalar Network1000.node320 	rate_of_requesters 	1
scalar Network1000.node320 	number_of_resources 	55000
scalar Network1000.node320 	time_period 	3
scalar Network1000.node320 	number_of_messages 	2
scalar Network1000.node320 	discovery_latency 	6648
scalar Network1000.node320 	number_of_desired_resources 	20
scalar Network1000.node320 	query_homogenity_rate 	33.333333333333
scalar Network1000.node320 	qrecord_time 	12675.276867135
scalar Network1000.node320 	discovery_resolution_rate 	0
scalar Network1000.node420 	rate_of_requesters 	1
scalar Network1000.node420 	number_of_resources 	55000
scalar Network1000.node420 	time_period 	4
scalar Network1000.node420 	number_of_messages 	2
scalar Network1000.node420 	discovery_latency 	6630
scalar Network1000.node420 	number_of_desired_resources 	20
scalar Network1000.node420 	query_homogenity_rate 	33.333333333333
scalar Network1000.node420 	qrecord_time 	12737.006994085
scalar Network1000.node420 	discovery_resolution_rate 	0
scalar Network1000.node50 	rate_of_requesters 	1
scalar Network1000.node50 	number_of_resources 	55000
scalar Network1000.node50 	time_period 	2
scalar Network1000.node50 	number_of_messages 	2
scalar Network1000.node50 	discovery_latency 	6504
scalar Network1000.node50 	number_of_desired_resources 	20
scalar Network1000.node50 	query_homogenity_rate 	33.333333333333
scalar Network1000.node50 	qrecord_time 	12749.750459427
scalar Network1000.node50 	discovery_resolution_rate 	0
scalar Network1000.node810 	rate_of_requesters 	1
scalar Network1000.node810 	number_of_resources 	55000
scalar Network1000.node810 	time_period 	2
scalar Network1000.node810 	number_of_messages 	2
scalar Network1000.node810 	discovery_latency 	6600
scalar Network1000.node810 	number_of_desired_resources 	20
scalar Network1000.node810 	query_homogenity_rate 	33.333333333333
scalar Network1000.node810 	qrecord_time 	12753.24068787
scalar Network1000.node810 	discovery_resolution_rate 	0
scalar Network1000.node70 	rate_of_requesters 	1
scalar Network1000.node70 	number_of_resources 	55000
scalar Network1000.node70 	time_period 	2
scalar Network1000.node70 	number_of_messages 	2
scalar Network1000.node70 	discovery_latency 	6528
scalar Network1000.node70 	number_of_desired_resources 	20
scalar Network1000.node70 	query_homogenity_rate 	33.333333333333
scalar Network1000.node70 	qrecord_time 	12774.343042677
scalar Network1000.node70 	discovery_resolution_rate 	0
scalar Network1000.node690 	rate_of_requesters 	1
scalar Network1000.node690 	number_of_resources 	55000
scalar Network1000.node690 	time_period 	2
scalar Network1000.node690 	number_of_messages 	168
scalar Network1000.node690 	discovery_latency 	6588
scalar Network1000.node690 	number_of_desired_resources 	20
scalar Network1000.node690 	query_homogenity_rate 	33.333333333333
scalar Network1000.node690 	qrecord_time 	12945.237918998
scalar Network1000.node690 	discovery_resolution_rate 	33.333333333333
scalar Network1000.node750 	rate_of_requesters 	1
scalar Network1000.node750 	number_of_resources 	55000
scalar Network1000.node750 	time_period 	2
scalar Network1000.node750 	number_of_messages 	0
scalar Network1000.node750 	discovery_latency 	6504
scalar Network1000.node750 	number_of_desired_resources 	20
scalar Network1000.node750 	query_homogenity_rate 	33.333333333333
scalar Network1000.node750 	qrecord_time 	13045.738370543
scalar Network1000.node750 	discovery_resolution_rate 	0
scalar Network1000.node30 	rate_of_requesters 	1
scalar Network1000.node30 	number_of_resources 	55000
scalar Network1000.node30 	time_period 	2
scalar Network1000.node30 	number_of_messages 	2
scalar Network1000.node30 	discovery_latency 	6636
scalar Network1000.node30 	number_of_desired_resources 	20
scalar Network1000.node30 	query_homogenity_rate 	33.333333333333
scalar Network1000.node30 	qrecord_time 	13060.573915672
scalar Network1000.node30 	discovery_resolution_rate 	0
scalar Network1000.node690 	rate_of_requesters 	1
scalar Network1000.node690 	number_of_resources 	55000
scalar Network1000.node690 	time_period 	3
scalar Network1000.node690 	number_of_messages 	2
scalar Network1000.node690 	discovery_latency 	6546
scalar Network1000.node690 	number_of_desired_resources 	20
scalar Network1000.node690 	query_homogenity_rate 	33.333333333333
scalar Network1000.node690 	qrecord_time 	13126.76195328
scalar Network1000.node690 	discovery_resolution_rate 	0
scalar Network1000.node450 	rate_of_requesters 	1
scalar Network1000.node450 	number_of_resources 	55000
scalar Network1000.node450 	time_period 	2
scalar Network1000.node450 	number_of_messages 	2
scalar Network1000.node450 	discovery_latency 	6588
scalar Network1000.node450 	number_of_desired_resources 	20
scalar Network1000.node450 	query_homogenity_rate 	33.333333333333
scalar Network1000.node450 	qrecord_time 	13165.852015593
scalar Network1000.node450 	discovery_resolution_rate 	0
scalar Network1000.node820 	rate_of_requesters 	1
scalar Network1000.node820 	number_of_resources 	55000
scalar Network1000.node820 	time_period 	2
scalar Network1000.node820 	number_of_messages 	2
scalar Network1000.node820 	discovery_latency 	6552
scalar Network1000.node820 	number_of_desired_resources 	20
scalar Network1000.node820 	query_homogenity_rate 	33.333333333333
scalar Network1000.node820 	qrecord_time 	13176.24838759
scalar Network1000.node820 	discovery_resolution_rate 	0
scalar Network1000.node320 	rate_of_requesters 	1
scalar Network1000.node320 	number_of_resources 	55000
scalar Network1000.node320 	time_period 	4
scalar Network1000.node320 	number_of_messages 	2
scalar Network1000.node320 	discovery_latency 	6390
scalar Network1000.node320 	number_of_desired_resources 	20
scalar Network1000.node320 	query_homogenity_rate 	33.333333333333
scalar Network1000.node320 	qrecord_time 	13240.440445977
scalar Network1000.node320 	discovery_resolution_rate 	0
scalar Network1000.node860 	rate_of_requesters 	1
scalar Network1000.node860 	number_of_resources 	55000
scalar Network1000.node860 	time_period 	2
scalar Network1000.node860 	number_of_messages 	2
scalar Network1000.node860 	discovery_latency 	6708
scalar Network1000.node860 	number_of_desired_resources 	20
scalar Network1000.node860 	query_homogenity_rate 	33.333333333333
scalar Network1000.node860 	qrecord_time 	13265.938253099
scalar Network1000.node860 	discovery_resolution_rate 	0
scalar Network1000.node440 	rate_of_requesters 	1
scalar Network1000.node440 	number_of_resources 	55000
scalar Network1000.node440 	time_period 	2
scalar Network1000.node440 	number_of_messages 	2
scalar Network1000.node440 	discovery_latency 	6408
scalar Network1000.node440 	number_of_desired_resources 	20
scalar Network1000.node440 	query_homogenity_rate 	33.333333333333
scalar Network1000.node440 	qrecord_time 	13272.502931536
scalar Network1000.node440 	discovery_resolution_rate 	0
scalar Network1000.node910 	rate_of_requesters 	1
scalar Network1000.node910 	number_of_resources 	55000
scalar Network1000.node910 	time_period 	3
scalar Network1000.node910 	number_of_messages 	2
scalar Network1000.node910 	discovery_latency 	6636
scalar Network1000.node910 	number_of_desired_resources 	20
scalar Network1000.node910 	query_homogenity_rate 	33.333333333333
scalar Network1000.node910 	qrecord_time 	13335.808842432
scalar Network1000.node910 	discovery_resolution_rate 	0
scalar Network1000.node210 	rate_of_requesters 	1
scalar Network1000.node210 	number_of_resources 	55000
scalar Network1000.node210 	time_period 	3
scalar Network1000.node210 	number_of_messages 	2
scalar Network1000.node210 	discovery_latency 	6504
scalar Network1000.node210 	number_of_desired_resources 	20
scalar Network1000.node210 	query_homogenity_rate 	33.333333333333
scalar Network1000.node210 	qrecord_time 	13372.949980162
scalar Network1000.node210 	discovery_resolution_rate 	0
scalar Network1000.node950 	rate_of_requesters 	1
scalar Network1000.node950 	number_of_resources 	55000
scalar Network1000.node950 	time_period 	2
scalar Network1000.node950 	number_of_messages 	2
scalar Network1000.node950 	discovery_latency 	6432
scalar Network1000.node950 	number_of_desired_resources 	20
scalar Network1000.node950 	query_homogenity_rate 	33.333333333333
scalar Network1000.node950 	qrecord_time 	13384.918847757
scalar Network1000.node950 	discovery_resolution_rate 	0
scalar Network1000.node750 	rate_of_requesters 	1
scalar Network1000.node750 	number_of_resources 	55000
scalar Network1000.node750 	time_period 	3
scalar Network1000.node750 	number_of_messages 	0
scalar Network1000.node750 	discovery_latency 	6360
scalar Network1000.node750 	number_of_desired_resources 	20
scalar Network1000.node750 	query_homogenity_rate 	33.333333333333
scalar Network1000.node750 	qrecord_time 	13396.196486152
scalar Network1000.node750 	discovery_resolution_rate 	0
scalar Network1000.node500 	rate_of_requesters 	1
scalar Network1000.node500 	number_of_resources 	55000
scalar Network1000.node500 	time_period 	3
scalar Network1000.node500 	number_of_messages 	2
scalar Network1000.node500 	discovery_latency 	6672
scalar Network1000.node500 	number_of_desired_resources 	20
scalar Network1000.node500 	query_homogenity_rate 	33.333333333333
scalar Network1000.node500 	qrecord_time 	13417.273113641
scalar Network1000.node500 	discovery_resolution_rate 	0
scalar Network1000.node490 	rate_of_requesters 	1
scalar Network1000.node490 	number_of_resources 	55000
scalar Network1000.node490 	time_period 	2
scalar Network1000.node490 	number_of_messages 	0
scalar Network1000.node490 	discovery_latency 	6588
scalar Network1000.node490 	number_of_desired_resources 	20
scalar Network1000.node490 	query_homogenity_rate 	33.333333333333
scalar Network1000.node490 	qrecord_time 	13429.842601986
scalar Network1000.node490 	discovery_resolution_rate 	0
scalar Network1000.node650 	rate_of_requesters 	1
scalar Network1000.node650 	number_of_resources 	55000
scalar Network1000.node650 	time_period 	2
scalar Network1000.node650 	number_of_messages 	2
scalar Network1000.node650 	discovery_latency 	6636
scalar Network1000.node650 	number_of_desired_resources 	20
scalar Network1000.node650 	query_homogenity_rate 	33.333333333333
scalar Network1000.node650 	qrecord_time 	13461.187846736
scalar Network1000.node650 	discovery_resolution_rate 	0
scalar Network1000.node420 	rate_of_requesters 	1
scalar Network1000.node420 	number_of_resources 	55000
scalar Network1000.node420 	time_period 	5
scalar Network1000.node420 	number_of_messages 	2
scalar Network1000.node420 	discovery_latency 	6552
scalar Network1000.node420 	number_of_desired_resources 	20
scalar Network1000.node420 	query_homogenity_rate 	33.333333333333
scalar Network1000.node420 	qrecord_time 	13474.479619103
scalar Network1000.node420 	discovery_resolution_rate 	0
scalar Network1000.node920 	rate_of_requesters 	1
scalar Network1000.node920 	number_of_resources 	55000
scalar Network1000.node920 	time_period 	2
scalar Network1000.node920 	number_of_messages 	2
scalar Network1000.node920 	discovery_latency 	6468
scalar Network1000.node920 	number_of_desired_resources 	20
scalar Network1000.node920 	query_homogenity_rate 	33.333333333333
scalar Network1000.node920 	qrecord_time 	13513.016610885
[...]
scalar Network1000.node630 	discovery_resolution_rate 	100
scalar Network1000.node100 	rate_of_requesters 	1
scalar Network1000.node100 	number_of_resources 	55000
scalar Network1000.node100 	time_period 	9
scalar Network1000.node100 	number_of_messages 	392
scalar Network1000.node100 	discovery_latency 	6462
scalar Network1000.node100 	number_of_desired_resources 	20
scalar Network1000.node100 	query_homogenity_rate 	33.333333333333
scalar Network1000.node100 	qrecord_time 	61732.964367202
scalar Network1000.node100 	discovery_resolution_rate 	50
scalar Network1000.node270 	rate_of_requesters 	1
scalar Network1000.node270 	number_of_resources 	55000
scalar Network1000.node270 	time_period 	10
scalar Network1000.node270 	number_of_messages 	689
scalar Network1000.node270 	discovery_latency 	6516
scalar Network1000.node270 	number_of_desired_resources 	20
scalar Network1000.node270 	query_homogenity_rate 	33.333333333333
scalar Network1000.node270 	qrecord_time 	62349.335343482
scalar Network1000.node270 	discovery_resolution_rate 	83.333333333333
scalar Network1000.node80 	rate_of_requesters 	1
scalar Network1000.node80 	number_of_resources 	55000
scalar Network1000.node80 	time_period 	7
scalar Network1000.node80 	number_of_messages 	311
scalar Network1000.node80 	discovery_latency 	3072
scalar Network1000.node80 	number_of_desired_resources 	20
scalar Network1000.node80 	query_homogenity_rate 	33.333333333333
scalar Network1000.node80 	qrecord_time 	62373.636930725
scalar Network1000.node80 	discovery_resolution_rate 	100
scalar Network1000.node250 	rate_of_requesters 	1
scalar Network1000.node250 	number_of_resources 	55000
scalar Network1000.node250 	time_period 	9
scalar Network1000.node250 	number_of_messages 	451
scalar Network1000.node250 	discovery_latency 	5988
scalar Network1000.node250 	number_of_desired_resources 	20
scalar Network1000.node250 	query_homogenity_rate 	33.333333333333
scalar Network1000.node250 	qrecord_time 	62620.522917499
scalar Network1000.node250 	discovery_resolution_rate 	100
scalar Network1000.node260 	rate_of_requesters 	1
scalar Network1000.node260 	number_of_resources 	55000
scalar Network1000.node260 	time_period 	10
scalar Network1000.node260 	number_of_messages 	73
scalar Network1000.node260 	discovery_latency 	696
scalar Network1000.node260 	number_of_desired_resources 	20
scalar Network1000.node260 	query_homogenity_rate 	33.333333333333
scalar Network1000.node260 	qrecord_time 	62790.567099878
scalar Network1000.node260 	discovery_resolution_rate 	100
scalar Network1000.node250 	rate_of_requesters 	1
scalar Network1000.node250 	number_of_resources 	55000
scalar Network1000.node250 	time_period 	8
scalar Network1000.node250 	number_of_messages 	509
scalar Network1000.node250 	discovery_latency 	6660
scalar Network1000.node250 	number_of_desired_resources 	20
scalar Network1000.node250 	query_homogenity_rate 	33.333333333333
scalar Network1000.node250 	qrecord_time 	62796.69920791
scalar Network1000.node250 	discovery_resolution_rate 	50
scalar Network1000.node770 	rate_of_requesters 	1
scalar Network1000.node770 	number_of_resources 	55000
scalar Network1000.node770 	time_period 	9
scalar Network1000.node770 	number_of_messages 	66
scalar Network1000.node770 	discovery_latency 	6588
scalar Network1000.node770 	number_of_desired_resources 	20
scalar Network1000.node770 	query_homogenity_rate 	33.333333333333
scalar Network1000.node770 	qrecord_time 	62831.848479421
scalar Network1000.node770 	discovery_resolution_rate 	33.333333333333
scalar Network1000.node590 	rate_of_requesters 	1
scalar Network1000.node590 	number_of_resources 	55000
scalar Network1000.node590 	time_period 	10
scalar Network1000.node590 	number_of_messages 	0
scalar Network1000.node590 	discovery_latency 	6636
scalar Network1000.node590 	number_of_desired_resources 	20
scalar Network1000.node590 	query_homogenity_rate 	33.333333333333
scalar Network1000.node590 	qrecord_time 	63119.132132417
scalar Network1000.node590 	discovery_resolution_rate 	0
scalar Network1000.node700 	rate_of_requesters 	1
scalar Network1000.node700 	number_of_resources 	55000
scalar Network1000.node700 	time_period 	7
scalar Network1000.node700 	number_of_messages 	261
scalar Network1000.node700 	discovery_latency 	6300
scalar Network1000.node700 	number_of_desired_resources 	20
scalar Network1000.node700 	query_homogenity_rate 	33.333333333333
scalar Network1000.node700 	qrecord_time 	63122.170224406
scalar Network1000.node700 	discovery_resolution_rate 	66.666666666667
scalar Network1000.node250 	rate_of_requesters 	1
scalar Network1000.node250 	number_of_resources 	55000
scalar Network1000.node250 	time_period 	10
scalar Network1000.node250 	number_of_messages 	123
scalar Network1000.node250 	discovery_latency 	6384
scalar Network1000.node250 	number_of_desired_resources 	20
scalar Network1000.node250 	query_homogenity_rate 	33.333333333333
scalar Network1000.node250 	qrecord_time 	63267.390087579
scalar Network1000.node250 	discovery_resolution_rate 	66.666666666667
scalar Network1000.node630 	rate_of_requesters 	1
scalar Network1000.node630 	number_of_resources 	55000
scalar Network1000.node630 	time_period 	7
scalar Network1000.node630 	number_of_messages 	419
scalar Network1000.node630 	discovery_latency 	4632
scalar Network1000.node630 	number_of_desired_resources 	20
scalar Network1000.node630 	query_homogenity_rate 	33.333333333333
scalar Network1000.node630 	qrecord_time 	63293.606750549
scalar Network1000.node630 	discovery_resolution_rate 	100
scalar Network1000.node770 	rate_of_requesters 	1
scalar Network1000.node770 	number_of_resources 	55000
scalar Network1000.node770 	time_period 	10
scalar Network1000.node770 	number_of_messages 	285
scalar Network1000.node770 	discovery_latency 	3432
scalar Network1000.node770 	number_of_desired_resources 	20
scalar Network1000.node770 	query_homogenity_rate 	33.333333333333
scalar Network1000.node770 	qrecord_time 	63668.033567177
scalar Network1000.node770 	discovery_resolution_rate 	100
scalar Network1000.node170 	rate_of_requesters 	1
scalar Network1000.node170 	number_of_resources 	55000
scalar Network1000.node170 	time_period 	8
scalar Network1000.node170 	number_of_messages 	72
scalar Network1000.node170 	discovery_latency 	6204
scalar Network1000.node170 	number_of_desired_resources 	20
scalar Network1000.node170 	query_homogenity_rate 	33.333333333333
scalar Network1000.node170 	qrecord_time 	63772.715549665
scalar Network1000.node170 	discovery_resolution_rate 	33.333333333333
scalar Network1000.node100 	rate_of_requesters 	1
scalar Network1000.node100 	number_of_resources 	55000
scalar Network1000.node100 	time_period 	10
scalar Network1000.node100 	number_of_messages 	567
scalar Network1000.node100 	discovery_latency 	6348
scalar Network1000.node100 	number_of_desired_resources 	20
scalar Network1000.node100 	query_homogenity_rate 	33.333333333333
scalar Network1000.node100 	qrecord_time 	63868.346797267
scalar Network1000.node100 	discovery_resolution_rate 	83.333333333333
scalar Network1000.node80 	rate_of_requesters 	1
scalar Network1000.node80 	number_of_resources 	55000
scalar Network1000.node80 	time_period 	9
scalar Network1000.node80 	number_of_messages 	124
scalar Network1000.node80 	discovery_latency 	1200
scalar Network1000.node80 	number_of_desired_resources 	20
scalar Network1000.node80 	query_homogenity_rate 	33.333333333333
scalar Network1000.node80 	qrecord_time 	63931.800271026
scalar Network1000.node80 	discovery_resolution_rate 	100
scalar Network1000.node260 	rate_of_requesters 	1
scalar Network1000.node260 	number_of_resources 	55000
scalar Network1000.node260 	time_period 	9
scalar Network1000.node260 	number_of_messages 	380
scalar Network1000.node260 	discovery_latency 	5496
scalar Network1000.node260 	number_of_desired_resources 	20
scalar Network1000.node260 	query_homogenity_rate 	33.333333333333
scalar Network1000.node260 	qrecord_time 	64156.663419365
scalar Network1000.node260 	discovery_resolution_rate 	100
scalar Network1000.node660 	rate_of_requesters 	1
scalar Network1000.node660 	number_of_resources 	55000
scalar Network1000.node660 	time_period 	9
scalar Network1000.node660 	number_of_messages 	99
scalar Network1000.node660 	discovery_latency 	1644
scalar Network1000.node660 	number_of_desired_resources 	20
scalar Network1000.node660 	query_homogenity_rate 	33.333333333333
scalar Network1000.node660 	qrecord_time 	64349.399946217
scalar Network1000.node660 	discovery_resolution_rate 	100
scalar Network1000.node170 	rate_of_requesters 	1
scalar Network1000.node170 	number_of_resources 	55000
scalar Network1000.node170 	time_period 	9
scalar Network1000.node170 	number_of_messages 	315
scalar Network1000.node170 	discovery_latency 	4908
scalar Network1000.node170 	number_of_desired_resources 	20
scalar Network1000.node170 	query_homogenity_rate 	33.333333333333
scalar Network1000.node170 	qrecord_time 	64854.396979805
scalar Network1000.node170 	discovery_resolution_rate 	100
scalar Network1000.node630 	rate_of_requesters 	1
scalar Network1000.node630 	number_of_resources 	55000
scalar Network1000.node630 	time_period 	8
scalar Network1000.node630 	number_of_messages 	497
scalar Network1000.node630 	discovery_latency 	6132
scalar Network1000.node630 	number_of_desired_resources 	20
scalar Network1000.node630 	query_homogenity_rate 	33.333333333333
scalar Network1000.node630 	qrecord_time 	64923.103956539
scalar Network1000.node630 	discovery_resolution_rate 	83.333333333333
scalar Network1000.node160 	rate_of_requesters 	1
scalar Network1000.node160 	number_of_resources 	55000
scalar Network1000.node160 	time_period 	9
scalar Network1000.node160 	number_of_messages 	221
scalar Network1000.node160 	discovery_latency 	6348
scalar Network1000.node160 	number_of_desired_resources 	20
scalar Network1000.node160 	query_homogenity_rate 	33.333333333333
scalar Network1000.node160 	qrecord_time 	64991.183685794
scalar Network1000.node160 	discovery_resolution_rate 	66.666666666667
scalar Network1000.node700 	rate_of_requesters 	1
scalar Network1000.node700 	number_of_resources 	55000
scalar Network1000.node700 	time_period 	8
scalar Network1000.node700 	number_of_messages 	708
scalar Network1000.node700 	discovery_latency 	6540
scalar Network1000.node700 	number_of_desired_resources 	20
scalar Network1000.node700 	query_homogenity_rate 	33.333333333333
scalar Network1000.node700 	qrecord_time 	65062.526796958
scalar Network1000.node700 	discovery_resolution_rate 	100
scalar Network1000.node950 	rate_of_requesters 	1
scalar Network1000.node950 	number_of_resources 	55000
scalar Network1000.node950 	time_period 	8
scalar Network1000.node950 	number_of_messages 	140
scalar Network1000.node950 	discovery_latency 	1320
scalar Network1000.node950 	number_of_desired_resources 	20
scalar Network1000.node950 	query_homogenity_rate 	33.333333333333
scalar Network1000.node950 	qrecord_time 	65187.995577019
scalar Network1000.node950 	discovery_resolution_rate 	100
scalar Network1000.node700 	rate_of_requesters 	1
scalar Network1000.node700 	number_of_resources 	55000
scalar Network1000.node700 	time_period 	9
scalar Network1000.node700 	number_of_messages 	105
scalar Network1000.node700 	discovery_latency 	1548
scalar Network1000.node700 	number_of_desired_resources 	20
scalar Network1000.node700 	query_homogenity_rate 	33.333333333333
scalar Network1000.node700 	qrecord_time 	65871.283626424
scalar Network1000.node700 	discovery_resolution_rate 	100
scalar Network1000.node80 	rate_of_requesters 	1
scalar Network1000.node80 	number_of_resources 	55000
scalar Network1000.node80 	time_period 	8
scalar Network1000.node80 	number_of_messages 	101
scalar Network1000.node80 	discovery_latency 	6204
scalar Network1000.node80 	number_of_desired_resources 	20
scalar Network1000.node80 	query_homogenity_rate 	33.333333333333
scalar Network1000.node80 	qrecord_time 	65963.906428785
scalar Network1000.node80 	discovery_resolution_rate 	66.666666666667
scalar Network1000.node40 	rate_of_requesters 	1
scalar Network1000.node40 	number_of_resources 	55000
scalar Network1000.node40 	time_period 	10
scalar Network1000.node40 	number_of_messages 	142
scalar Network1000.node40 	discovery_latency 	1194
scalar Network1000.node40 	number_of_desired_resources 	20
scalar Network1000.node40 	query_homogenity_rate 	33.333333333333
scalar Network1000.node40 	qrecord_time 	66816.793777722
scalar Network1000.node40 	discovery_resolution_rate 	100
scalar Network1000.node160 	rate_of_requesters 	1
scalar Network1000.node160 	number_of_resources 	55000
scalar Network1000.node160 	time_period 	10
scalar Network1000.node160 	number_of_messages 	446
scalar Network1000.node160 	discovery_latency 	6516
scalar Network1000.node160 	number_of_desired_resources 	20
scalar Network1000.node160 	query_homogenity_rate 	33.333333333333
scalar Network1000.node160 	qrecord_time 	67667.513708981
scalar Network1000.node160 	discovery_resolution_rate 	83.333333333333
scalar Network1000.node660 	rate_of_requesters 	1
scalar Network1000.node660 	number_of_resources 	55000
scalar Network1000.node660 	time_period 	10
scalar Network1000.node660 	number_of_messages 	267
scalar Network1000.node660 	discovery_latency 	4884
scalar Network1000.node660 	number_of_desired_resources 	20
scalar Network1000.node660 	query_homogenity_rate 	33.333333333333
scalar Network1000.node660 	qrecord_time 	68003.112943767
scalar Network1000.node660 	discovery_resolution_rate 	100
scalar Network1000.node670 	rate_of_requesters 	1
scalar Network1000.node670 	number_of_resources 	55000
scalar Network1000.node670 	time_period 	10
scalar Network1000.node670 	number_of_messages 	44
scalar Network1000.node670 	discovery_latency 	6420
scalar Network1000.node670 	number_of_desired_resources 	20
scalar Network1000.node670 	query_homogenity_rate 	33.333333333333
scalar Network1000.node670 	qrecord_time 	68028.367171784
scalar Network1000.node670 	discovery_resolution_rate 	66.666666666667
scalar Network1000.node360 	rate_of_requesters 	1
scalar Network1000.node360 	number_of_resources 	55000
scalar Network1000.node360 	time_period 	10
scalar Network1000.node360 	number_of_messages 	140
scalar Network1000.node360 	discovery_latency 	1752
scalar Network1000.node360 	number_of_desired_resources 	20
scalar Network1000.node360 	query_homogenity_rate 	33.333333333333
scalar Network1000.node360 	qrecord_time 	68136.594799493
scalar Network1000.node360 	discovery_resolution_rate 	100
scalar Network1000.node170 	rate_of_requesters 	1
scalar Network1000.node170 	number_of_resources 	55000
scalar Network1000.node170 	time_period 	10
scalar Network1000.node170 	number_of_messages 	321
scalar Network1000.node170 	discovery_latency 	5148
scalar Network1000.node170 	number_of_desired_resources 	20
scalar Network1000.node170 	query_homogenity_rate 	33.333333333333
scalar Network1000.node170 	qrecord_time 	68156.306492351
scalar Network1000.node170 	discovery_resolution_rate 	100
scalar Network1000.node40 	rate_of_requesters 	1
scalar Network1000.node40 	number_of_resources 	55000
scalar Network1000.node40 	time_period 	9
scalar Network1000.node40 	number_of_messages 	307
scalar Network1000.node40 	discovery_latency 	5616
scalar Network1000.node40 	number_of_desired_resources 	20
scalar Network1000.node40 	query_homogenity_rate 	33.333333333333
scalar Network1000.node40 	qrecord_time 	68202.851983731
scalar Network1000.node40 	discovery_resolution_rate 	100
scalar Network1000.node630 	rate_of_requesters 	1
scalar Network1000.node630 	number_of_resources 	55000
scalar Network1000.node630 	time_period 	10
scalar Network1000.node630 	number_of_messages 	298
scalar Network1000.node630 	discovery_latency 	4680
scalar Network1000.node630 	number_of_desired_resources 	20
scalar Network1000.node630 	query_homogenity_rate 	33.333333333333
scalar Network1000.node630 	qrecord_time 	68657.054342656
scalar Network1000.node630 	discovery_resolution_rate 	100
scalar Network1000.node80 	rate_of_requesters 	1
scalar Network1000.node80 	number_of_resources 	55000
scalar Network1000.node80 	time_period 	10
scalar Network1000.node80 	number_of_messages 	111
scalar Network1000.node80 	discovery_latency 	6120
scalar Network1000.node80 	number_of_desired_resources 	20
scalar Network1000.node80 	query_homogenity_rate 	33.333333333333
scalar Network1000.node80 	qrecord_time 	69431.982486446
scalar Network1000.node80 	discovery_resolution_rate 	66.666666666667
scalar Network1000.node700 	rate_of_requesters 	1
scalar Network1000.node700 	number_of_resources 	55000
scalar Network1000.node700 	time_period 	10
scalar Network1000.node700 	number_of_messages 	143
scalar Network1000.node700 	discovery_latency 	1884
scalar Network1000.node700 	number_of_desired_resources 	20
scalar Network1000.node700 	query_homogenity_rate 	33.333333333333
scalar Network1000.node700 	qrecord_time 	69439.917557786
scalar Network1000.node700 	discovery_resolution_rate 	100
scalar Network1000.node480 	rate_of_requesters 	1
scalar Network1000.node480 	number_of_resources 	55000
scalar Network1000.node480 	time_period 	7
scalar Network1000.node480 	number_of_messages 	129
scalar Network1000.node480 	discovery_latency 	2724
scalar Network1000.node480 	number_of_desired_resources 	20
scalar Network1000.node480 	query_homogenity_rate 	33.333333333333
scalar Network1000.node480 	qrecord_time 	69859.820527081
scalar Network1000.node480 	discovery_resolution_rate 	100
scalar Network1000.node480 	rate_of_requesters 	1
scalar Network1000.node480 	number_of_resources 	55000
scalar Network1000.node480 	time_period 	8
scalar Network1000.node480 	number_of_messages 	137
scalar Network1000.node480 	discovery_latency 	2880
scalar Network1000.node480 	number_of_desired_resources 	20
scalar Network1000.node480 	query_homogenity_rate 	33.333333333333
scalar Network1000.node480 	qrecord_time 	71931.632951083
scalar Network1000.node480 	discovery_resolution_rate 	100
scalar Network1000.node480 	rate_of_requesters 	1
scalar Network1000.node480 	number_of_resources 	55000
scalar Network1000.node480 	time_period 	10
scalar Network1000.node480 	number_of_messages 	36
scalar Network1000.node480 	discovery_latency 	576.00000000001
scalar Network1000.node480 	number_of_desired_resources 	20
scalar Network1000.node480 	query_homogenity_rate 	33.333333333333
scalar Network1000.node480 	qrecord_time 	74569.313853989
scalar Network1000.node480 	discovery_resolution_rate 	100
scalar Network1000.node480 	rate_of_requesters 	1
scalar Network1000.node480 	number_of_resources 	55000
scalar Network1000.node480 	time_period 	9
scalar Network1000.node480 	number_of_messages 	89
scalar Network1000.node480 	discovery_latency 	1860
scalar Network1000.node480 	number_of_desired_resources 	20
scalar Network1000.node480 	query_homogenity_rate 	33.333333333333
scalar Network1000.node480 	qrecord_time 	75083.875818278
scalar Network1000.node480 	discovery_resolution_rate 	100
scalar Network1000.node950 	rate_of_requesters 	1
scalar Network1000.node950 	number_of_resources 	55000
scalar Network1000.node950 	time_period 	9
scalar Network1000.node950 	number_of_messages 	94
scalar Network1000.node950 	discovery_latency 	1878
scalar Network1000.node950 	number_of_desired_resources 	20
scalar Network1000.node950 	query_homogenity_rate 	33.333333333333
scalar Network1000.node950 	qrecord_time 	79300.875709566
scalar Network1000.node950 	discovery_resolution_rate 	100
scalar Network1000.node950 	rate_of_requesters 	1
scalar Network1000.node950 	number_of_resources 	55000
scalar Network1000.node950 	time_period 	10
scalar Network1000.node950 	number_of_messages 	29
scalar Network1000.node950 	discovery_latency 	354
scalar Network1000.node950 	number_of_desired_resources 	20
scalar Network1000.node950 	query_homogenity_rate 	33.333333333333
scalar Network1000.node950 	qrecord_time 	79589.017732687
scalar Network1000.node950 	discovery_resolution_rate 	100
