version 2
run net300-2-20150624-21:25:46-31277
attr as 1
attr configname net300
attr datetime 20150624-21:25:46
attr dnor 20
attr experiment net300
attr inifile omnetpp.ini
attr iterationvars "$rhdrq=3, $dnor=20, $as=1"
attr iterationvars2 "$rhdrq=3, $dnor=20, $as=1, $repetition=2"
attr measurement "$rhdrq=3, $dnor=20, $as=1"
attr network Network300
attr processid 31277
attr repetition 2
attr replication #2
attr resultdir results
attr rhdrq 3
attr runnumber 2
attr seedset 2

scalar . 	as 	1
scalar . 	dnor 	20
scalar . 	rhdrq 	3
scalar Network300.node240 	rate_of_requesters 	1
scalar Network300.node240 	number_of_resources 	16500
scalar Network300.node240 	time_period 	1
scalar Network300.node240 	number_of_messages 	32
scalar Network300.node240 	discovery_latency 	252
scalar Network300.node240 	number_of_desired_resources 	20
scalar Network300.node240 	query_homogenity_rate 	33.333333333333
scalar Network300.node240 	qrecord_time 	4894
scalar Network300.node240 	discovery_resolution_rate 	100
scalar Network300.node90 	rate_of_requesters 	1
scalar Network300.node90 	number_of_resources 	16500
scalar Network300.node90 	time_period 	1
scalar Network300.node90 	number_of_messages 	24
scalar Network300.node90 	discovery_latency 	264
scalar Network300.node90 	number_of_desired_resources 	20
scalar Network300.node90 	query_homogenity_rate 	33.333333333333
scalar Network300.node90 	qrecord_time 	5032
scalar Network300.node90 	discovery_resolution_rate 	100
scalar Network300.node30 	rate_of_requesters 	1
scalar Network300.node30 	number_of_resources 	16500
scalar Network300.node30 	time_period 	1
scalar Network300.node30 	number_of_messages 	24
scalar Network300.node30 	discovery_latency 	1452
scalar Network300.node30 	number_of_desired_resources 	20
scalar Network300.node30 	query_homogenity_rate 	33.333333333333
scalar Network300.node30 	qrecord_time 	6148
scalar Network300.node30 	discovery_resolution_rate 	66.666666666667
scalar Network300.node140 	rate_of_requesters 	1
scalar Network300.node140 	number_of_resources 	16500
scalar Network300.node140 	time_period 	1
scalar Network300.node140 	number_of_messages 	31
scalar Network300.node140 	discovery_latency 	1488
scalar Network300.node140 	number_of_desired_resources 	20
scalar Network300.node140 	query_homogenity_rate 	33.333333333333
scalar Network300.node140 	qrecord_time 	6154
scalar Network300.node140 	discovery_resolution_rate 	66.666666666667
scalar Network300.node290 	rate_of_requesters 	1
scalar Network300.node290 	number_of_resources 	16500
scalar Network300.node290 	time_period 	1
scalar Network300.node290 	number_of_messages 	27
scalar Network300.node290 	discovery_latency 	1500
scalar Network300.node290 	number_of_desired_resources 	20
scalar Network300.node290 	query_homogenity_rate 	33.333333333333
scalar Network300.node290 	qrecord_time 	6256
scalar Network300.node290 	discovery_resolution_rate 	66.666666666667
scalar Network300.node40 	rate_of_requesters 	1
scalar Network300.node40 	number_of_resources 	16500
scalar Network300.node40 	time_period 	1
scalar Network300.node40 	number_of_messages 	19
scalar Network300.node40 	discovery_latency 	1548
scalar Network300.node40 	number_of_desired_resources 	20
scalar Network300.node40 	query_homogenity_rate 	33.333333333333
scalar Network300.node40 	qrecord_time 	6262
scalar Network300.node40 	discovery_resolution_rate 	66.666666666667
scalar Network300.node200 	rate_of_requesters 	1
scalar Network300.node200 	number_of_resources 	16500
scalar Network300.node200 	time_period 	1
scalar Network300.node200 	number_of_messages 	13
scalar Network300.node200 	discovery_latency 	1548
scalar Network300.node200 	number_of_desired_resources 	20
scalar Network300.node200 	query_homogenity_rate 	33.333333333333
scalar Network300.node200 	qrecord_time 	6262
scalar Network300.node200 	discovery_resolution_rate 	66.666666666667
scalar Network300.node280 	rate_of_requesters 	1
scalar Network300.node280 	number_of_resources 	16500
scalar Network300.node280 	time_period 	1
scalar Network300.node280 	number_of_messages 	7
scalar Network300.node280 	discovery_latency 	1596
scalar Network300.node280 	number_of_desired_resources 	20
scalar Network300.node280 	query_homogenity_rate 	33.333333333333
scalar Network300.node280 	qrecord_time 	6280
scalar Network300.node280 	discovery_resolution_rate 	33.333333333333
scalar Network300.node250 	rate_of_requesters 	1
scalar Network300.node250 	number_of_resources 	16500
scalar Network300.node250 	time_period 	1
scalar Network300.node250 	number_of_messages 	13
scalar Network300.node250 	discovery_latency 	1560
scalar Network300.node250 	number_of_desired_resources 	20
scalar Network300.node250 	query_homogenity_rate 	33.333333333333
scalar Network300.node250 	qrecord_time 	6292
scalar Network300.node250 	discovery_resolution_rate 	33.333333333333
scalar Network300.node100 	rate_of_requesters 	1
scalar Network300.node100 	number_of_resources 	16500
scalar Network300.node100 	time_period 	1
scalar Network300.node100 	number_of_messages 	17
scalar Network300.node100 	discovery_latency 	1608
scalar Network300.node100 	number_of_desired_resources 	20
scalar Network300.node100 	query_homogenity_rate 	33.333333333333
scalar Network300.node100 	qrecord_time 	6298
scalar Network300.node100 	discovery_resolution_rate 	66.666666666667
scalar Network300.node120 	rate_of_requesters 	1
scalar Network300.node120 	number_of_resources 	16500
scalar Network300.node120 	time_period 	1
scalar Network300.node120 	number_of_messages 	27
scalar Network300.node120 	discovery_latency 	1596
scalar Network300.node120 	number_of_desired_resources 	20
scalar Network300.node120 	query_homogenity_rate 	33.333333333333
scalar Network300.node120 	qrecord_time 	6304
scalar Network300.node120 	discovery_resolution_rate 	66.666666666667
scalar Network300.node230 	rate_of_requesters 	1
scalar Network300.node230 	number_of_resources 	16500
scalar Network300.node230 	time_period 	1
scalar Network300.node230 	number_of_messages 	25
scalar Network300.node230 	discovery_latency 	1548
scalar Network300.node230 	number_of_desired_resources 	20
scalar Network300.node230 	query_homogenity_rate 	33.333333333333
scalar Network300.node230 	qrecord_time 	6316
scalar Network300.node230 	discovery_resolution_rate 	66.666666666667
scalar Network300.node170 	rate_of_requesters 	1
scalar Network300.node170 	number_of_resources 	16500
scalar Network300.node170 	time_period 	1
scalar Network300.node170 	number_of_messages 	5
scalar Network300.node170 	discovery_latency 	1584
scalar Network300.node170 	number_of_desired_resources 	20
scalar Network300.node170 	query_homogenity_rate 	33.333333333333
scalar Network300.node170 	qrecord_time 	6316
scalar Network300.node170 	discovery_resolution_rate 	33.333333333333
scalar Network300.node210 	rate_of_requesters 	1
scalar Network300.node210 	number_of_resources 	16500
scalar Network300.node210 	time_period 	1
scalar Network300.node210 	number_of_messages 	5
scalar Network300.node210 	discovery_latency 	1584
scalar Network300.node210 	number_of_desired_resources 	20
scalar Network300.node210 	query_homogenity_rate 	33.333333333333
scalar Network300.node210 	qrecord_time 	6316
scalar Network300.node210 	discovery_resolution_rate 	33.333333333333
scalar Network300.node60 	rate_of_requesters 	1
scalar Network300.node60 	number_of_resources 	16500
scalar Network300.node60 	time_period 	1
scalar Network300.node60 	number_of_messages 	9
scalar Network300.node60 	discovery_latency 	1608
scalar Network300.node60 	number_of_desired_resources 	20
scalar Network300.node60 	query_homogenity_rate 	33.333333333333
scalar Network300.node60 	qrecord_time 	6322
scalar Network300.node60 	discovery_resolution_rate 	33.333333333333
scalar Network300.node160 	rate_of_requesters 	1
scalar Network300.node160 	number_of_resources 	16500
scalar Network300.node160 	time_period 	1
scalar Network300.node160 	number_of_messages 	13
scalar Network300.node160 	discovery_latency 	1620
scalar Network300.node160 	number_of_desired_resources 	20
scalar Network300.node160 	query_homogenity_rate 	33.333333333333
scalar Network300.node160 	qrecord_time 	6328
scalar Network300.node160 	discovery_resolution_rate 	33.333333333333
scalar Network300.node110 	rate_of_requesters 	1
scalar Network300.node110 	number_of_resources 	16500
scalar Network300.node110 	time_period 	1
scalar Network300.node110 	number_of_messages 	12
scalar Network300.node110 	discovery_latency 	1680
scalar Network300.node110 	number_of_desired_resources 	20
scalar Network300.node110 	query_homogenity_rate 	33.333333333333
scalar Network300.node110 	qrecord_time 	6328
scalar Network300.node110 	discovery_resolution_rate 	66.666666666667
scalar Network300.node0 	rate_of_requesters 	1
scalar Network300.node0 	number_of_resources 	16500
scalar Network300.node0 	time_period 	1
scalar Network300.node0 	number_of_messages 	24
scalar Network300.node0 	discovery_latency 	1608
scalar Network300.node0 	number_of_desired_resources 	20
scalar Network300.node0 	query_homogenity_rate 	33.333333333333
scalar Network300.node0 	qrecord_time 	6328
scalar Network300.node0 	discovery_resolution_rate 	66.666666666667
scalar Network300.node180 	rate_of_requesters 	1
scalar Network300.node180 	number_of_resources 	16500
scalar Network300.node180 	time_period 	1
scalar Network300.node180 	number_of_messages 	5
scalar Network300.node180 	discovery_latency 	1632
scalar Network300.node180 	number_of_desired_resources 	20
scalar Network300.node180 	query_homogenity_rate 	33.333333333333
scalar Network300.node180 	qrecord_time 	6358
scalar Network300.node180 	discovery_resolution_rate 	33.333333333333
scalar Network300.node260 	rate_of_requesters 	1
scalar Network300.node260 	number_of_resources 	16500
scalar Network300.node260 	time_period 	1
scalar Network300.node260 	number_of_messages 	38
scalar Network300.node260 	discovery_latency 	1632
scalar Network300.node260 	number_of_desired_resources 	20
scalar Network300.node260 	query_homogenity_rate 	33.333333333333
scalar Network300.node260 	qrecord_time 	6364
scalar Network300.node260 	discovery_resolution_rate 	66.666666666667
scalar Network300.node150 	rate_of_requesters 	1
scalar Network300.node150 	number_of_resources 	16500
scalar Network300.node150 	time_period 	1
scalar Network300.node150 	number_of_messages 	34
scalar Network300.node150 	discovery_latency 	1632
scalar Network300.node150 	number_of_desired_resources 	20
scalar Network300.node150 	query_homogenity_rate 	33.333333333333
scalar Network300.node150 	qrecord_time 	6364
scalar Network300.node150 	discovery_resolution_rate 	33.333333333333
scalar Network300.node130 	rate_of_requesters 	1
scalar Network300.node130 	number_of_resources 	16500
scalar Network300.node130 	time_period 	1
scalar Network300.node130 	number_of_messages 	42
scalar Network300.node130 	discovery_latency 	1584
scalar Network300.node130 	number_of_desired_resources 	20
scalar Network300.node130 	query_homogenity_rate 	33.333333333333
scalar Network300.node130 	qrecord_time 	6364
scalar Network300.node130 	discovery_resolution_rate 	33.333333333333
scalar Network300.node20 	rate_of_requesters 	1
scalar Network300.node20 	number_of_resources 	16500
scalar Network300.node20 	time_period 	1
scalar Network300.node20 	number_of_messages 	5
scalar Network300.node20 	discovery_latency 	1692
scalar Network300.node20 	number_of_desired_resources 	20
scalar Network300.node20 	query_homogenity_rate 	33.333333333333
scalar Network300.node20 	qrecord_time 	6364
scalar Network300.node20 	discovery_resolution_rate 	33.333333333333
scalar Network300.node190 	rate_of_requesters 	1
scalar Network300.node190 	number_of_resources 	16500
scalar Network300.node190 	time_period 	1
scalar Network300.node190 	number_of_messages 	3
scalar Network300.node190 	discovery_latency 	1608
scalar Network300.node190 	number_of_desired_resources 	20
scalar Network300.node190 	query_homogenity_rate 	33.333333333333
scalar Network300.node190 	qrecord_time 	6376
scalar Network300.node190 	discovery_resolution_rate 	33.333333333333
scalar Network300.node50 	rate_of_requesters 	1
scalar Network300.node50 	number_of_resources 	16500
scalar Network300.node50 	time_period 	1
scalar Network300.node50 	number_of_messages 	4
scalar Network300.node50 	discovery_latency 	1632
scalar Network300.node50 	number_of_desired_resources 	20
scalar Network300.node50 	query_homogenity_rate 	33.333333333333
scalar Network300.node50 	qrecord_time 	6382
scalar Network300.node50 	discovery_resolution_rate 	33.333333333333
scalar Network300.node10 	rate_of_requesters 	1
scalar Network300.node10 	number_of_resources 	16500
scalar Network300.node10 	time_period 	1
scalar Network300.node10 	number_of_messages 	7
scalar Network300.node10 	discovery_latency 	1644
scalar Network300.node10 	number_of_desired_resources 	20
scalar Network300.node10 	query_homogenity_rate 	33.333333333333
scalar Network300.node10 	qrecord_time 	6382
scalar Network300.node10 	discovery_resolution_rate 	33.333333333333
scalar Network300.node70 	rate_of_requesters 	1
scalar Network300.node70 	number_of_resources 	16500
scalar Network300.node70 	time_period 	1
scalar Network300.node70 	number_of_messages 	6
scalar Network300.node70 	discovery_latency 	1620
scalar Network300.node70 	number_of_desired_resources 	20
scalar Network300.node70 	query_homogenity_rate 	33.333333333333
scalar Network300.node70 	qrecord_time 	6394
scalar Network300.node70 	discovery_resolution_rate 	33.333333333333
scalar Network300.node220 	rate_of_requesters 	1
scalar Network300.node220 	number_of_resources 	16500
scalar Network300.node220 	time_period 	1
scalar Network300.node220 	number_of_messages 	6
scalar Network300.node220 	discovery_latency 	1620
scalar Network300.node220 	number_of_desired_resources 	20
scalar Network300.node220 	query_homogenity_rate 	33.333333333333
scalar Network300.node220 	qrecord_time 	6394
scalar Network300.node220 	discovery_resolution_rate 	33.333333333333
scalar Network300.node80 	rate_of_requesters 	1
scalar Network300.node80 	number_of_resources 	16500
scalar Network300.node80 	time_period 	1
scalar Network300.node80 	number_of_messages 	11
scalar Network300.node80 	discovery_latency 	1656
scalar Network300.node80 	number_of_desired_resources 	20
scalar Network300.node80 	query_homogenity_rate 	33.333333333333
scalar Network300.node80 	qrecord_time 	6412
scalar Network300.node80 	discovery_resolution_rate 	66.666666666667
scalar Network300.node270 	rate_of_requesters 	1
scalar Network300.node270 	number_of_resources 	16500
scalar Network300.node270 	time_period 	1
scalar Network300.node270 	number_of_messages 	5
scalar Network300.node270 	discovery_latency 	1668
scalar Network300.node270 	number_of_desired_resources 	20
scalar Network300.node270 	query_homogenity_rate 	33.333333333333
scalar Network300.node270 	qrecord_time 	6520
scalar Network300.node270 	discovery_resolution_rate 	33.333333333333
scalar Network300.node240 	rate_of_requesters 	1
scalar Network300.node240 	number_of_resources 	16500
scalar Network300.node240 	time_period 	3
scalar Network300.node240 	number_of_messages 	16
scalar Network300.node240 	discovery_latency 	1488
scalar Network300.node240 	number_of_desired_resources 	20
scalar Network300.node240 	query_homogenity_rate 	33.333333333333
scalar Network300.node240 	qrecord_time 	6522.604268084
scalar Network300.node240 	discovery_resolution_rate 	33.333333333333
scalar Network300.node10 	rate_of_requesters 	1
scalar Network300.node10 	number_of_resources 	16500
scalar Network300.node10 	time_period 	2
scalar Network300.node10 	number_of_messages 	17
scalar Network300.node10 	discovery_latency 	1572
scalar Network300.node10 	number_of_desired_resources 	20
scalar Network300.node10 	query_homogenity_rate 	33.333333333333
scalar Network300.node10 	qrecord_time 	6530.843394142
scalar Network300.node10 	discovery_resolution_rate 	33.333333333333
scalar Network300.node240 	rate_of_requesters 	1
scalar Network300.node240 	number_of_resources 	16500
scalar Network300.node240 	time_period 	2
scalar Network300.node240 	number_of_messages 	10
scalar Network300.node240 	discovery_latency 	1656
scalar Network300.node240 	number_of_desired_resources 	20
scalar Network300.node240 	query_homogenity_rate 	33.333333333333
scalar Network300.node240 	qrecord_time 	6675.816265111
scalar Network300.node240 	discovery_resolution_rate 	33.333333333333
scalar Network300.node280 	rate_of_requesters 	1
scalar Network300.node280 	number_of_resources 	16500
scalar Network300.node280 	time_period 	2
scalar Network300.node280 	number_of_messages 	16
scalar Network300.node280 	discovery_latency 	1620
scalar Network300.node280 	number_of_desired_resources 	20
scalar Network300.node280 	query_homogenity_rate 	33.333333333333
scalar Network300.node280 	qrecord_time 	6711.895309005
scalar Network300.node280 	discovery_resolution_rate 	33.333333333333
scalar Network300.node290 	rate_of_requesters 	1
scalar Network300.node290 	number_of_resources 	16500
scalar Network300.node290 	time_period 	2
scalar Network300.node290 	number_of_messages 	10
scalar Network300.node290 	discovery_latency 	1572
scalar Network300.node290 	number_of_desired_resources 	20
scalar Network300.node290 	query_homogenity_rate 	33.333333333333
scalar Network300.node290 	qrecord_time 	6901.975208961
scalar Network300.node290 	discovery_resolution_rate 	33.333333333333
scalar Network300.node40 	rate_of_requesters 	1
scalar Network300.node40 	number_of_resources 	16500
scalar Network300.node40 	time_period 	2
scalar Network300.node40 	number_of_messages 	6
scalar Network300.node40 	discovery_latency 	1668
scalar Network300.node40 	number_of_desired_resources 	20
scalar Network300.node40 	query_homogenity_rate 	33.333333333333
scalar Network300.node40 	qrecord_time 	7039.968600947
scalar Network300.node40 	discovery_resolution_rate 	33.333333333333
scalar Network300.node180 	rate_of_requesters 	1
scalar Network300.node180 	number_of_resources 	16500
scalar Network300.node180 	time_period 	2
scalar Network300.node180 	number_of_messages 	16
scalar Network300.node180 	discovery_latency 	1584
scalar Network300.node180 	number_of_desired_resources 	20
scalar Network300.node180 	query_homogenity_rate 	33.333333333333
scalar Network300.node180 	qrecord_time 	7102.659109083
scalar Network300.node180 	discovery_resolution_rate 	33.333333333333
scalar Network300.node60 	rate_of_requesters 	1
scalar Network300.node60 	number_of_resources 	16500
scalar Network300.node60 	time_period 	2
scalar Network300.node60 	number_of_messages 	14
scalar Network300.node60 	discovery_latency 	1680
scalar Network300.node60 	number_of_desired_resources 	20
scalar Network300.node60 	query_homogenity_rate 	33.333333333333
scalar Network300.node60 	qrecord_time 	7344.724094735
scalar Network300.node60 	discovery_resolution_rate 	33.333333333333
scalar Network300.node30 	rate_of_requesters 	1
scalar Network300.node30 	number_of_resources 	16500
scalar Network300.node30 	time_period 	2
scalar Network300.node30 	number_of_messages 	12
scalar Network300.node30 	discovery_latency 	1680
scalar Network300.node30 	number_of_desired_resources 	20
scalar Network300.node30 	query_homogenity_rate 	33.333333333333
scalar Network300.node30 	qrecord_time 	7595.808842716
scalar Network300.node30 	discovery_resolution_rate 	33.333333333333
scalar Network300.node30 	rate_of_requesters 	1
scalar Network300.node30 	number_of_resources 	16500
scalar Network300.node30 	time_period 	3
scalar Network300.node30 	number_of_messages 	13
scalar Network300.node30 	discovery_latency 	1572
scalar Network300.node30 	number_of_desired_resources 	20
scalar Network300.node30 	query_homogenity_rate 	33.333333333333
scalar Network300.node30 	qrecord_time 	7974.409149123
scalar Network300.node30 	discovery_resolution_rate 	33.333333333333
scalar Network300.node240 	rate_of_requesters 	1
scalar Network300.node240 	number_of_resources 	16500
scalar Network300.node240 	time_period 	4
scalar Network300.node240 	number_of_messages 	10
scalar Network300.node240 	discovery_latency 	1632
scalar Network300.node240 	number_of_desired_resources 	20
scalar Network300.node240 	query_homogenity_rate 	33.333333333333
scalar Network300.node240 	qrecord_time 	8114.026369448
scalar Network300.node240 	discovery_resolution_rate 	33.333333333333
scalar Network300.node290 	rate_of_requesters 	1
scalar Network300.node290 	number_of_resources 	16500
scalar Network300.node290 	time_period 	3
scalar Network300.node290 	number_of_messages 	56
scalar Network300.node290 	discovery_latency 	1656
scalar Network300.node290 	number_of_desired_resources 	20
scalar Network300.node290 	query_homogenity_rate 	33.333333333333
scalar Network300.node290 	qrecord_time 	8596.465270136
scalar Network300.node290 	discovery_resolution_rate 	66.666666666667
scalar Network300.node160 	rate_of_requesters 	1
scalar Network300.node160 	number_of_resources 	16500
scalar Network300.node160 	time_period 	2
scalar Network300.node160 	number_of_messages 	36
scalar Network300.node160 	discovery_latency 	1584
scalar Network300.node160 	number_of_desired_resources 	20
scalar Network300.node160 	query_homogenity_rate 	33.333333333333
scalar Network300.node160 	qrecord_time 	8598.721181927
scalar Network300.node160 	discovery_resolution_rate 	33.333333333333
scalar Network300.node170 	rate_of_requesters 	1
scalar Network300.node170 	number_of_resources 	16500
scalar Network300.node170 	time_period 	2
scalar Network300.node170 	number_of_messages 	75
scalar Network300.node170 	discovery_latency 	1584
scalar Network300.node170 	number_of_desired_resources 	20
scalar Network300.node170 	query_homogenity_rate 	33.333333333333
scalar Network300.node170 	qrecord_time 	8632.59305565
scalar Network300.node170 	discovery_resolution_rate 	66.666666666667
scalar Network300.node40 	rate_of_requesters 	1
scalar Network300.node40 	number_of_resources 	16500
scalar Network300.node40 	time_period 	3
scalar Network300.node40 	number_of_messages 	6
scalar Network300.node40 	discovery_latency 	1548
scalar Network300.node40 	number_of_desired_resources 	20
scalar Network300.node40 	query_homogenity_rate 	33.333333333333
scalar Network300.node40 	qrecord_time 	8674.345477435
scalar Network300.node40 	discovery_resolution_rate 	33.333333333333
scalar Network300.node200 	rate_of_requesters 	1
scalar Network300.node200 	number_of_resources 	16500
scalar Network300.node200 	time_period 	2
scalar Network300.node200 	number_of_messages 	27
scalar Network300.node200 	discovery_latency 	1644
scalar Network300.node200 	number_of_desired_resources 	20
scalar Network300.node200 	query_homogenity_rate 	33.333333333333
scalar Network300.node200 	qrecord_time 	8757.507475818
scalar Network300.node200 	discovery_resolution_rate 	33.333333333333
scalar Network300.node270 	rate_of_requesters 	1
scalar Network300.node270 	number_of_resources 	16500
scalar Network300.node270 	time_period 	2
scalar Network300.node270 	number_of_messages 	10
scalar Network300.node270 	discovery_latency 	1644
scalar Network300.node270 	number_of_desired_resources 	20
scalar Network300.node270 	query_homogenity_rate 	33.333333333333
scalar Network300.node270 	qrecord_time 	8859.156102238
scalar Network300.node270 	discovery_resolution_rate 	33.333333333333
scalar Network300.node160 	rate_of_requesters 	1
scalar Network300.node160 	number_of_resources 	16500
scalar Network300.node160 	time_period 	3
scalar Network300.node160 	number_of_messages 	58
scalar Network300.node160 	discovery_latency 	1572
scalar Network300.node160 	number_of_desired_resources 	20
scalar Network300.node160 	query_homogenity_rate 	33.333333333333
scalar Network300.node160 	qrecord_time 	8878.333365309
scalar Network300.node160 	discovery_resolution_rate 	66.666666666667
scalar Network300.node90 	rate_of_requesters 	1
scalar Network300.node90 	number_of_resources 	16500
scalar Network300.node90 	time_period 	2
scalar Network300.node90 	number_of_messages 	21
scalar Network300.node90 	discovery_latency 	1644
scalar Network300.node90 	number_of_desired_resources 	20
scalar Network300.node90 	query_homogenity_rate 	33.333333333333
scalar Network300.node90 	qrecord_time 	8887.704606552
scalar Network300.node90 	discovery_resolution_rate 	33.333333333333
scalar Network300.node130 	rate_of_requesters 	1
scalar Network300.node130 	number_of_resources 	16500
scalar Network300.node130 	time_period 	2
scalar Network300.node130 	number_of_messages 	31
scalar Network300.node130 	discovery_latency 	1572
scalar Network300.node130 	number_of_desired_resources 	20
scalar Network300.node130 	query_homogenity_rate 	33.333333333333
scalar Network300.node130 	qrecord_time 	8927.554981719
scalar Network300.node130 	discovery_resolution_rate 	33.333333333333
scalar Network300.node120 	rate_of_requesters 	1
scalar Network300.node120 	number_of_resources 	16500
scalar Network300.node120 	time_period 	2
scalar Network300.node120 	number_of_messages 	44
scalar Network300.node120 	discovery_latency 	1584
scalar Network300.node120 	number_of_desired_resources 	20
scalar Network300.node120 	query_homogenity_rate 	33.333333333333
scalar Network300.node120 	qrecord_time 	8941.754855264
scalar Network300.node120 	discovery_resolution_rate 	33.333333333333
scalar Network300.node150 	rate_of_requesters 	1
scalar Network300.node150 	number_of_resources 	16500
scalar Network300.node150 	time_period 	2
scalar Network300.node150 	number_of_messages 	22
scalar Network300.node150 	discovery_latency 	1560
scalar Network300.node150 	number_of_desired_resources 	20
scalar Network300.node150 	query_homogenity_rate 	33.333333333333
scalar Network300.node150 	qrecord_time 	9033.267448944
scalar Network300.node150 	discovery_resolution_rate 	33.333333333333
scalar Network300.node60 	rate_of_requesters 	1
scalar Network300.node60 	number_of_resources 	16500
scalar Network300.node60 	time_period 	3
scalar Network300.node60 	number_of_messages 	126
scalar Network300.node60 	discovery_latency 	1116
scalar Network300.node60 	number_of_desired_resources 	20
scalar Network300.node60 	query_homogenity_rate 	33.333333333333
scalar Network300.node60 	qrecord_time 	9036.698452561
scalar Network300.node60 	discovery_resolution_rate 	100
scalar Network300.node0 	rate_of_requesters 	1
scalar Network300.node0 	number_of_resources 	16500
scalar Network300.node0 	time_period 	2
scalar Network300.node0 	number_of_messages 	15
scalar Network300.node0 	discovery_latency 	1704
scalar Network300.node0 	number_of_desired_resources 	20
scalar Network300.node0 	query_homogenity_rate 	33.333333333333
scalar Network300.node0 	qrecord_time 	9395.992364111
scalar Network300.node0 	discovery_resolution_rate 	33.333333333333
scalar Network300.node240 	rate_of_requesters 	1
scalar Network300.node240 	number_of_resources 	16500
scalar Network300.node240 	time_period 	5
scalar Network300.node240 	number_of_messages 	79
scalar Network300.node240 	discovery_latency 	1704
scalar Network300.node240 	number_of_desired_resources 	20
scalar Network300.node240 	query_homogenity_rate 	33.333333333333
scalar Network300.node240 	qrecord_time 	9510.637186537
scalar Network300.node240 	discovery_resolution_rate 	33.333333333333
scalar Network300.node30 	rate_of_requesters 	1
scalar Network300.node30 	number_of_resources 	16500
scalar Network300.node30 	time_period 	4
scalar Network300.node30 	number_of_messages 	31
scalar Network300.node30 	discovery_latency 	1548
scalar Network300.node30 	number_of_desired_resources 	20
scalar Network300.node30 	query_homogenity_rate 	33.333333333333
scalar Network300.node30 	qrecord_time 	9587.695699607
scalar Network300.node30 	discovery_resolution_rate 	33.333333333333
scalar Network300.node120 	rate_of_requesters 	1
scalar Network300.node120 	number_of_resources 	16500
scalar Network300.node120 	time_period 	3
scalar Network300.node120 	number_of_messages 	29
scalar Network300.node120 	discovery_latency 	1608
scalar Network300.node120 	number_of_desired_resources 	20
scalar Network300.node120 	query_homogenity_rate 	33.333333333333
scalar Network300.node120 	qrecord_time 	9615.822513707
scalar Network300.node120 	discovery_resolution_rate 	33.333333333333
scalar Network300.node180 	rate_of_requesters 	1
scalar Network300.node180 	number_of_resources 	16500
scalar Network300.node180 	time_period 	3
scalar Network300.node180 	number_of_messages 	53
scalar Network300.node180 	discovery_latency 	1548
scalar Network300.node180 	number_of_desired_resources 	20
scalar Network300.node180 	query_homogenity_rate 	33.333333333333
scalar Network300.node180 	qrecord_time 	9692.511475029
scalar Network300.node180 	discovery_resolution_rate 	66.666666666667
scalar Network300.node100 	rate_of_requesters 	1
scalar Network300.node100 	number_of_resources 	16500
scalar Network300.node100 	time_period 	2
scalar Network300.node100 	number_of_messages 	58
scalar Network300.node100 	discovery_latency 	1632
scalar Network300.node100 	number_of_desired_resources 	20
scalar Network300.node100 	query_homogenity_rate 	33.333333333333
scalar Network300.node100 	qrecord_time 	9748.283283441
scalar Network300.node100 	discovery_resolution_rate 	33.333333333333
scalar Network300.node100 	rate_of_requesters 	1
scalar Network300.node100 	number_of_resources 	16500
scalar Network300.node100 	time_period 	3
scalar Network300.node100 	number_of_messages 	11
scalar Network300.node100 	discovery_latency 	1620
scalar Network300.node100 	number_of_desired_resources 	20
scalar Network300.node100 	query_homogenity_rate 	33.333333333333
scalar Network300.node100 	qrecord_time 	9750.986402534
scalar Network300.node100 	discovery_resolution_rate 	33.333333333333
scalar Network300.node150 	rate_of_requesters 	1
scalar Network300.node150 	number_of_resources 	16500
scalar Network300.node150 	time_period 	3
scalar Network300.node150 	number_of_messages 	13
scalar Network300.node150 	discovery_latency 	1644
scalar Network300.node150 	number_of_desired_resources 	20
scalar Network300.node150 	query_homogenity_rate 	33.333333333333
scalar Network300.node150 	qrecord_time 	10537.538548879
scalar Network300.node150 	discovery_resolution_rate 	33.333333333333
scalar Network300.node120 	rate_of_requesters 	1
scalar Network300.node120 	number_of_resources 	16500
scalar Network300.node120 	time_period 	4
scalar Network300.node120 	number_of_messages 	6
scalar Network300.node120 	discovery_latency 	1560
scalar Network300.node120 	number_of_desired_resources 	20
scalar Network300.node120 	query_homogenity_rate 	33.333333333333
scalar Network300.node120 	qrecord_time 	10549.491652175
scalar Network300.node120 	discovery_resolution_rate 	33.333333333333
scalar Network300.node200 	rate_of_requesters 	1
scalar Network300.node200 	number_of_resources 	16500
scalar Network300.node200 	time_period 	3
scalar Network300.node200 	number_of_messages 	5
scalar Network300.node200 	discovery_latency 	1632
scalar Network300.node200 	number_of_desired_resources 	20
scalar Network300.node200 	query_homogenity_rate 	33.333333333333
scalar Network300.node200 	qrecord_time 	10574.910124241
scalar Network300.node200 	discovery_resolution_rate 	33.333333333333
scalar Network300.node70 	rate_of_requesters 	1
scalar Network300.node70 	number_of_resources 	16500
scalar Network300.node70 	time_period 	2
scalar Network300.node70 	number_of_messages 	5
scalar Network300.node70 	discovery_latency 	1536
scalar Network300.node70 	number_of_desired_resources 	20
scalar Network300.node70 	query_homogenity_rate 	33.333333333333
scalar Network300.node70 	qrecord_time 	10579.347611991
scalar Network300.node70 	discovery_resolution_rate 	33.333333333333
scalar Network300.node0 	rate_of_requesters 	1
scalar Network300.node0 	number_of_resources 	16500
scalar Network300.node0 	time_period 	3
scalar Network300.node0 	number_of_messages 	52
scalar Network300.node0 	discovery_latency 	1656
scalar Network300.node0 	number_of_desired_resources 	20
scalar Network300.node0 	query_homogenity_rate 	33.333333333333
scalar Network300.node0 	qrecord_time 	10622.905785607
scalar Network300.node0 	discovery_resolution_rate 	33.333333333333
scalar Network300.node40 	rate_of_requesters 	1
scalar Network300.node40 	number_of_resources 	16500
scalar Network300.node40 	time_period 	4
scalar Network300.node40 	number_of_messages 	77
scalar Network300.node40 	discovery_latency 	696
scalar Network300.node40 	number_of_desired_resources 	20
scalar Network300.node40 	query_homogenity_rate 	33.333333333333
scalar Network300.node40 	qrecord_time 	10680.864444492
scalar Network300.node40 	discovery_resolution_rate 	100
scalar Network300.node30 	rate_of_requesters 	1
scalar Network300.node30 	number_of_resources 	16500
scalar Network300.node30 	time_period 	5
scalar Network300.node30 	number_of_messages 	8
scalar Network300.node30 	discovery_latency 	1632
scalar Network300.node30 	number_of_desired_resources 	20
scalar Network300.node30 	query_homogenity_rate 	33.333333333333
scalar Network300.node30 	qrecord_time 	10683.34832926
scalar Network300.node30 	discovery_resolution_rate 	33.333333333333
scalar Network300.node70 	rate_of_requesters 	1
scalar Network300.node70 	number_of_resources 	16500
scalar Network300.node70 	time_period 	3
scalar Network300.node70 	number_of_messages 	61
scalar Network300.node70 	discovery_latency 	1512
scalar Network300.node70 	number_of_desired_resources 	20
scalar Network300.node70 	query_homogenity_rate 	33.333333333333
scalar Network300.node70 	qrecord_time 	10703.823577939
scalar Network300.node70 	discovery_resolution_rate 	33.333333333333
scalar Network300.node230 	rate_of_requesters 	1
scalar Network300.node230 	number_of_resources 	16500
scalar Network300.node230 	time_period 	2
scalar Network300.node230 	number_of_messages 	18
scalar Network300.node230 	discovery_latency 	1572
scalar Network300.node230 	number_of_desired_resources 	20
scalar Network300.node230 	query_homogenity_rate 	33.333333333333
scalar Network300.node230 	qrecord_time 	10789.659012215
scalar Network300.node230 	discovery_resolution_rate 	33.333333333333
scalar Network300.node240 	rate_of_requesters 	1
scalar Network300.node240 	number_of_resources 	16500
scalar Network300.node240 	time_period 	6
scalar Network300.node240 	number_of_messages 	8
scalar Network300.node240 	discovery_latency 	1560
scalar Network300.node240 	number_of_desired_resources 	20
scalar Network300.node240 	query_homogenity_rate 	33.333333333333
scalar Network300.node240 	qrecord_time 	10830.154393822
scalar Network300.node240 	discovery_resolution_rate 	33.333333333333
scalar Network300.node220 	rate_of_requesters 	1
scalar Network300.node220 	number_of_resources 	16500
scalar Network300.node220 	time_period 	2
scalar Network300.node220 	number_of_messages 	37
scalar Network300.node220 	discovery_latency 	1560
scalar Network300.node220 	number_of_desired_resources 	20
scalar Network300.node220 	query_homogenity_rate 	33.333333333333
scalar Network300.node220 	qrecord_time 	10926.690002792
scalar Network300.node220 	discovery_resolution_rate 	33.333333333333
scalar Network300.node220 	rate_of_requesters 	1
scalar Network300.node220 	number_of_resources 	16500
scalar Network300.node220 	time_period 	3
scalar Network300.node220 	number_of_messages 	62
scalar Network300.node220 	discovery_latency 	1464
scalar Network300.node220 	number_of_desired_resources 	20
scalar Network300.node220 	query_homogenity_rate 	33.333333333333
scalar Network300.node220 	qrecord_time 	10975.475869706
scalar Network300.node220 	discovery_resolution_rate 	66.666666666667
scalar Network300.node20 	rate_of_requesters 	1
scalar Network300.node20 	number_of_resources 	16500
scalar Network300.node20 	time_period 	2
scalar Network300.node20 	number_of_messages 	71
scalar Network300.node20 	discovery_latency 	1560
scalar Network300.node20 	number_of_desired_resources 	20
scalar Network300.node20 	query_homogenity_rate 	33.333333333333
scalar Network300.node20 	qrecord_time 	10992.690925052
scalar Network300.node20 	discovery_resolution_rate 	66.666666666667
scalar Network300.node100 	rate_of_requesters 	1
scalar Network300.node100 	number_of_resources 	16500
scalar Network300.node100 	time_period 	4
scalar Network300.node100 	number_of_messages 	98
scalar Network300.node100 	discovery_latency 	2016
scalar Network300.node100 	number_of_desired_resources 	20
scalar Network300.node100 	query_homogenity_rate 	33.333333333333
scalar Network300.node100 	qrecord_time 	11160.423919172
scalar Network300.node100 	discovery_resolution_rate 	33.333333333333
scalar Network300.node0 	rate_of_requesters 	1
scalar Network300.node0 	number_of_resources 	16500
scalar Network300.node0 	time_period 	4
scalar Network300.node0 	number_of_messages 	22
scalar Network300.node0 	discovery_latency 	1488
scalar Network300.node0 	number_of_desired_resources 	20
scalar Network300.node0 	query_homogenity_rate 	33.333333333333
scalar Network300.node0 	qrecord_time 	11362.440951437
scalar Network300.node0 	discovery_resolution_rate 	66.666666666667
scalar Network300.node230 	rate_of_requesters 	1
scalar Network300.node230 	number_of_resources 	16500
scalar Network300.node230 	time_period 	3
scalar Network300.node230 	number_of_messages 	62
scalar Network300.node230 	discovery_latency 	1164
scalar Network300.node230 	number_of_desired_resources 	20
scalar Network300.node230 	query_homogenity_rate 	33.333333333333
scalar Network300.node230 	qrecord_time 	11642.180261758
scalar Network300.node230 	discovery_resolution_rate 	100
scalar Network300.node20 	rate_of_requesters 	1
scalar Network300.node20 	number_of_resources 	16500
scalar Network300.node20 	time_period 	3
scalar Network300.node20 	number_of_messages 	41
scalar Network300.node20 	discovery_latency 	1428
scalar Network300.node20 	number_of_desired_resources 	20
scalar Network300.node20 	query_homogenity_rate 	33.333333333333
scalar Network300.node20 	qrecord_time 	11758.479640281
scalar Network300.node20 	discovery_resolution_rate 	66.666666666667
scalar Network300.node210 	rate_of_requesters 	1
scalar Network300.node210 	number_of_resources 	16500
scalar Network300.node210 	time_period 	2
scalar Network300.node210 	number_of_messages 	49
scalar Network300.node210 	discovery_latency 	1536
scalar Network300.node210 	number_of_desired_resources 	20
scalar Network300.node210 	query_homogenity_rate 	33.333333333333
scalar Network300.node210 	qrecord_time 	12141.944840489
scalar Network300.node210 	discovery_resolution_rate 	66.666666666667
scalar Network300.node80 	rate_of_requesters 	1
scalar Network300.node80 	number_of_resources 	16500
scalar Network300.node80 	time_period 	2
scalar Network300.node80 	number_of_messages 	34
scalar Network300.node80 	discovery_latency 	1560
scalar Network300.node80 	number_of_desired_resources 	20
scalar Network300.node80 	query_homogenity_rate 	33.333333333333
scalar Network300.node80 	qrecord_time 	12333.812434498
scalar Network300.node80 	discovery_resolution_rate 	66.666666666667
scalar Network300.node30 	rate_of_requesters 	1
scalar Network300.node30 	number_of_resources 	16500
scalar Network300.node30 	time_period 	6
scalar Network300.node30 	number_of_messages 	29
scalar Network300.node30 	discovery_latency 	1536
scalar Network300.node30 	number_of_desired_resources 	20
scalar Network300.node30 	query_homogenity_rate 	33.333333333333
scalar Network300.node30 	qrecord_time 	12362.837295088
scalar Network300.node30 	discovery_resolution_rate 	66.666666666667
scalar Network300.node30 	rate_of_requesters 	1
scalar Network300.node30 	number_of_resources 	16500
scalar Network300.node30 	time_period 	7
scalar Network300.node30 	number_of_messages 	31
scalar Network300.node30 	discovery_latency 	1428
scalar Network300.node30 	number_of_desired_resources 	20
scalar Network300.node30 	query_homogenity_rate 	33.333333333333
scalar Network300.node30 	qrecord_time 	12405.586318388
scalar Network300.node30 	discovery_resolution_rate 	66.666666666667
scalar Network300.node250 	rate_of_requesters 	1
scalar Network300.node250 	number_of_resources 	16500
scalar Network300.node250 	time_period 	3
scalar Network300.node250 	number_of_messages 	20
scalar Network300.node250 	discovery_latency 	1560
scalar Network300.node250 	number_of_desired_resources 	20
scalar Network300.node250 	query_homogenity_rate 	33.333333333333
scalar Network300.node250 	qrecord_time 	12525.298391571
scalar Network300.node250 	discovery_resolution_rate 	33.333333333333
scalar Network300.node250 	rate_of_requesters 	1
scalar Network300.node250 	number_of_resources 	16500
scalar Network300.node250 	time_period 	2
scalar Network300.node250 	number_of_messages 	11
scalar Network300.node250 	discovery_latency 	1620
scalar Network300.node250 	number_of_desired_resources 	20
scalar Network300.node250 	query_homogenity_rate 	33.333333333333
scalar Network300.node250 	qrecord_time 	12558.881671595
scalar Network300.node250 	discovery_resolution_rate 	33.333333333333
scalar Network300.node120 	rate_of_requesters 	1
scalar Network300.node120 	number_of_resources 	16500
scalar Network300.node120 	time_period 	5
scalar Network300.node120 	number_of_messages 	7
scalar Network300.node120 	discovery_latency 	1596
scalar Network300.node120 	number_of_desired_resources 	20
scalar Network300.node120 	query_homogenity_rate 	33.333333333333
scalar Network300.node120 	qrecord_time 	12785.534094556
scalar Network300.node120 	discovery_resolution_rate 	33.333333333333
scalar Network300.node190 	rate_of_requesters 	1
scalar Network300.node190 	number_of_resources 	16500
scalar Network300.node190 	time_period 	2
scalar Network300.node190 	number_of_messages 	62
scalar Network300.node190 	discovery_latency 	744
scalar Network300.node190 	number_of_desired_resources 	20
scalar Network300.node190 	query_homogenity_rate 	33.333333333333
scalar Network300.node190 	qrecord_time 	12794.916689786
scalar Network300.node190 	discovery_resolution_rate 	100
scalar Network300.node90 	rate_of_requesters 	1
scalar Network300.node90 	number_of_resources 	16500
scalar Network300.node90 	time_period 	3
scalar Network300.node90 	number_of_messages 	8
scalar Network300.node90 	discovery_latency 	1548
scalar Network300.node90 	number_of_desired_resources 	20
scalar Network300.node90 	query_homogenity_rate 	33.333333333333
scalar Network300.node90 	qrecord_time 	12800.638230853
scalar Network300.node90 	discovery_resolution_rate 	33.333333333333
scalar Network300.node120 	rate_of_requesters 	1
scalar Network300.node120 	number_of_resources 	16500
scalar Network300.node120 	time_period 	6
scalar Network300.node120 	number_of_messages 	13
scalar Network300.node120 	discovery_latency 	1584
scalar Network300.node120 	number_of_desired_resources 	20
scalar Network300.node120 	query_homogenity_rate 	33.333333333333
scalar Network300.node120 	qrecord_time 	12905.804908235
scalar Network300.node120 	discovery_resolution_rate 	33.333333333333
scalar Network300.node70 	rate_of_requesters 	1
scalar Network300.node70 	number_of_resources 	16500
scalar Network300.node70 	time_period 	4
scalar Network300.node70 	number_of_messages 	8
scalar Network300.node70 	discovery_latency 	1560
scalar Network300.node70 	number_of_desired_resources 	20
scalar Network300.node70 	query_homogenity_rate 	33.333333333333
scalar Network300.node70 	qrecord_time 	12928.406463021
scalar Network300.node70 	discovery_resolution_rate 	33.333333333333
scalar Network300.node160 	rate_of_requesters 	1
scalar Network300.node160 	number_of_resources 	16500
scalar Network300.node160 	time_period 	4
scalar Network300.node160 	number_of_messages 	12
scalar Network300.node160 	discovery_latency 	1584
scalar Network300.node160 	number_of_desired_resources 	20
scalar Network300.node160 	query_homogenity_rate 	33.333333333333
scalar Network300.node160 	qrecord_time 	12929.222967184
scalar Network300.node160 	discovery_resolution_rate 	33.333333333333
scalar Network300.node170 	rate_of_requesters 	1
scalar Network300.node170 	number_of_resources 	16500
scalar Network300.node170 	time_period 	3
scalar Network300.node170 	number_of_messages 	5
scalar Network300.node170 	discovery_latency 	1560
scalar Network300.node170 	number_of_desired_resources 	20
scalar Network300.node170 	query_homogenity_rate 	33.333333333333
scalar Network300.node170 	qrecord_time 	13216.533525518
scalar Network300.node170 	discovery_resolution_rate 	33.333333333333
scalar Network300.node140 	rate_of_requesters 	1
scalar Network300.node140 	number_of_resources 	16500
scalar Network300.node140 	time_period 	2
scalar Network300.node140 	number_of_messages 	71
scalar Network300.node140 	discovery_latency 	1476
scalar Network300.node140 	number_of_desired_resources 	20
scalar Network300.node140 	query_homogenity_rate 	33.333333333333
scalar Network300.node140 	qrecord_time 	13381.464900317
scalar Network300.node140 	discovery_resolution_rate 	66.666666666667
scalar Network300.node170 	rate_of_requesters 	1
scalar Network300.node170 	number_of_resources 	16500
scalar Network300.node170 	time_period 	4
scalar Network300.node170 	number_of_messages 	21
scalar Network300.node170 	discovery_latency 	1608
scalar Network300.node170 	number_of_desired_resources 	20
scalar Network300.node170 	query_homogenity_rate 	33.333333333333
scalar Network300.node170 	qrecord_time 	13539.878137338
scalar Network300.node170 	discovery_resolution_rate 	33.333333333333
scalar Network300.node60 	rate_of_requesters 	1
scalar Network300.node60 	number_of_resources 	16500
scalar Network300.node60 	time_period 	4
scalar Network300.node60 	number_of_messages 	31
scalar Network300.node60 	discovery_latency 	1428
scalar Network300.node60 	number_of_desired_resources 	20
scalar Network300.node60 	query_homogenity_rate 	33.333333333333
scalar Network300.node60 	qrecord_time 	13562.376168938
scalar Network300.node60 	discovery_resolution_rate 	66.666666666667
scalar Network300.node0 	rate_of_requesters 	1
scalar Network300.node0 	number_of_resources 	16500
scalar Network300.node0 	time_period 	5
scalar Network300.node0 	number_of_messages 	14
scalar Network300.node0 	discovery_latency 	1596
scalar Network300.node0 	number_of_desired_resources 	20
scalar Network300.node0 	query_homogenity_rate 	33.333333333333
scalar Network300.node0 	qrecord_time 	13594.547746533
scalar Network300.node0 	discovery_resolution_rate 	33.333333333333
scalar Network300.node130 	rate_of_requesters 	1
scalar Network300.node130 	number_of_resources 	16500
scalar Network300.node130 	time_period 	3
scalar Network300.node130 	number_of_messages 	14
scalar Network300.node130 	discovery_latency 	1572
scalar Network300.node130 	number_of_desired_resources 	20
scalar Network300.node130 	query_homogenity_rate 	33.333333333333
scalar Network300.node130 	qrecord_time 	13627.91766361
scalar Network300.node130 	discovery_resolution_rate 	33.333333333333
scalar Network300.node280 	rate_of_requesters 	1
scalar Network300.node280 	number_of_resources 	16500
scalar Network300.node280 	time_period 	3
scalar Network300.node280 	number_of_messages 	16
scalar Network300.node280 	discovery_latency 	1644
scalar Network300.node280 	number_of_desired_resources 	20
scalar Network300.node280 	query_homogenity_rate 	33.333333333333
scalar Network300.node280 	qrecord_time 	13748.175577421
scalar Network300.node280 	discovery_resolution_rate 	33.333333333333
scalar Network300.node160 	rate_of_requesters 	1
scalar Network300.node160 	number_of_resources 	16500
scalar Network300.node160 	time_period 	5
scalar Network300.node160 	number_of_messages 	33
scalar Network300.node160 	discovery_latency 	1656
scalar Network300.node160 	number_of_desired_resources 	20
scalar Network300.node160 	query_homogenity_rate 	33.333333333333
scalar Network300.node160 	qrecord_time 	13816.976205873
scalar Network300.node160 	discovery_resolution_rate 	33.333333333333
scalar Network300.node10 	rate_of_requesters 	1
scalar Network300.node10 	number_of_resources 	16500
scalar Network300.node10 	time_period 	3
scalar Network300.node10 	number_of_messages 	59
scalar Network300.node10 	discovery_latency 	1464
scalar Network300.node10 	number_of_desired_resources 	20
scalar Network300.node10 	query_homogenity_rate 	33.333333333333
scalar Network300.node10 	qrecord_time 	13860.628599671
scalar Network300.node10 	discovery_resolution_rate 	66.666666666667
scalar Network300.node230 	rate_of_requesters 	1
scalar Network300.node230 	number_of_resources 	16500
scalar Network300.node230 	time_period 	4
scalar Network300.node230 	number_of_messages 	6
scalar Network300.node230 	discovery_latency 	1644
scalar Network300.node230 	number_of_desired_resources 	20
scalar Network300.node230 	query_homogenity_rate 	33.333333333333
scalar Network300.node230 	qrecord_time 	13935.966766642
scalar Network300.node230 	discovery_resolution_rate 	33.333333333333
scalar Network300.node220 	rate_of_requesters 	1
scalar Network300.node220 	number_of_resources 	16500
scalar Network300.node220 	time_period 	4
scalar Network300.node220 	number_of_messages 	8
scalar Network300.node220 	discovery_latency 	1668
scalar Network300.node220 	number_of_desired_resources 	20
scalar Network300.node220 	query_homogenity_rate 	33.333333333333
scalar Network300.node220 	qrecord_time 	14022.096595787
scalar Network300.node220 	discovery_resolution_rate 	33.333333333333
scalar Network300.node220 	rate_of_requesters 	1
scalar Network300.node220 	number_of_resources 	16500
scalar Network300.node220 	time_period 	5
scalar Network300.node220 	number_of_messages 	18
scalar Network300.node220 	discovery_latency 	1584
scalar Network300.node220 	number_of_desired_resources 	20
scalar Network300.node220 	query_homogenity_rate 	33.333333333333
scalar Network300.node220 	qrecord_time 	14084.868725652
scalar Network300.node220 	discovery_resolution_rate 	33.333333333333
scalar Network300.node180 	rate_of_requesters 	1
scalar Network300.node180 	number_of_resources 	16500
scalar Network300.node180 	time_period 	4
scalar Network300.node180 	number_of_messages 	5
scalar Network300.node180 	discovery_latency 	1584
scalar Network300.node180 	number_of_desired_resources 	20
scalar Network300.node180 	query_homogenity_rate 	33.333333333333
scalar Network300.node180 	qrecord_time 	14108.20490697
scalar Network300.node180 	discovery_resolution_rate 	33.333333333333
scalar Network300.node260 	rate_of_requesters 	1
scalar Network300.node260 	number_of_resources 	16500
scalar Network300.node260 	time_period 	2
scalar Network300.node260 	number_of_messages 	9
scalar Network300.node260 	discovery_latency 	1608
scalar Network300.node260 	number_of_desired_resources 	20
scalar Network300.node260 	query_homogenity_rate 	33.333333333333
scalar Network300.node260 	qrecord_time 	14212.067862848
scalar Network300.node260 	discovery_resolution_rate 	33.333333333333
scalar Network300.node20 	rate_of_requesters 	1
scalar Network300.node20 	number_of_resources 	16500
scalar Network300.node20 	time_period 	4
scalar Network300.node20 	number_of_messages 	52
scalar Network300.node20 	discovery_latency 	1632
scalar Network300.node20 	number_of_desired_resources 	20
scalar Network300.node20 	query_homogenity_rate 	33.333333333333
scalar Network300.node20 	qrecord_time 	14341.991124657
scalar Network300.node20 	discovery_resolution_rate 	66.666666666667
scalar Network300.node240 	rate_of_requesters 	1
scalar Network300.node240 	number_of_resources 	16500
scalar Network300.node240 	time_period 	7
scalar Network300.node240 	number_of_messages 	7
scalar Network300.node240 	discovery_latency 	1560
scalar Network300.node240 	number_of_desired_resources 	20
scalar Network300.node240 	query_homogenity_rate 	33.333333333333
scalar Network300.node240 	qrecord_time 	14483.153815207
scalar Network300.node240 	discovery_resolution_rate 	33.333333333333
scalar Network300.node210 	rate_of_requesters 	1
scalar Network300.node210 	number_of_resources 	16500
scalar Network300.node210 	time_period 	3
scalar Network300.node210 	number_of_messages 	73
scalar Network300.node210 	discovery_latency 	1548
scalar Network300.node210 	number_of_desired_resources 	20
scalar Network300.node210 	query_homogenity_rate 	33.333333333333
scalar Network300.node210 	qrecord_time 	14654.863714462
scalar Network300.node210 	discovery_resolution_rate 	66.666666666667
scalar Network300.node40 	rate_of_requesters 	1
scalar Network300.node40 	number_of_resources 	16500
scalar Network300.node40 	time_period 	5
scalar Network300.node40 	number_of_messages 	17
scalar Network300.node40 	discovery_latency 	1572
scalar Network300.node40 	number_of_desired_resources 	20
scalar Network300.node40 	query_homogenity_rate 	33.333333333333
scalar Network300.node40 	qrecord_time 	14682.86200816
scalar Network300.node40 	discovery_resolution_rate 	33.333333333333
scalar Network300.node50 	rate_of_requesters 	1
scalar Network300.node50 	number_of_resources 	16500
scalar Network300.node50 	time_period 	2
scalar Network300.node50 	number_of_messages 	33
scalar Network300.node50 	discovery_latency 	1464
scalar Network300.node50 	number_of_desired_resources 	20
scalar Network300.node50 	query_homogenity_rate 	33.333333333333
scalar Network300.node50 	qrecord_time 	14701.492753183
scalar Network300.node50 	discovery_resolution_rate 	66.666666666667
scalar Network300.node0 	rate_of_requesters 	1
scalar Network300.node0 	number_of_resources 	16500
scalar Network300.node0 	time_period 	6
scalar Network300.node0 	number_of_messages 	15
scalar Network300.node0 	discovery_latency 	1704
scalar Network300.node0 	number_of_desired_resources 	20
scalar Network300.node0 	query_homogenity_rate 	33.333333333333
scalar Network300.node0 	qrecord_time 	14730.538221946
scalar Network300.node0 	discovery_resolution_rate 	33.333333333333
scalar Network300.node140 	rate_of_requesters 	1
scalar Network300.node140 	number_of_resources 	16500
scalar Network300.node140 	time_period 	3
scalar Network300.node140 	number_of_messages 	11
scalar Network300.node140 	discovery_latency 	1596
scalar Network300.node140 	number_of_desired_resources 	20
scalar Network300.node140 	query_homogenity_rate 	33.333333333333
scalar Network300.node140 	qrecord_time 	14924.724714387
scalar Network300.node140 	discovery_resolution_rate 	33.333333333333
scalar Network300.node0 	rate_of_requesters 	1
scalar Network300.node0 	number_of_resources 	16500
scalar Network300.node0 	time_period 	7
scalar Network300.node0 	number_of_messages 	8
scalar Network300.node0 	discovery_latency 	1584
scalar Network300.node0 	number_of_desired_resources 	20
scalar Network300.node0 	query_homogenity_rate 	33.333333333333
scalar Network300.node0 	qrecord_time 	14951.619830426
scalar Network300.node0 	discovery_resolution_rate 	33.333333333333
scalar Network300.node230 	rate_of_requesters 	1
scalar Network300.node230 	number_of_resources 	16500
scalar Network300.node230 	time_period 	5
scalar Network300.node230 	number_of_messages 	20
scalar Network300.node230 	discovery_latency 	1620
scalar Network300.node230 	number_of_desired_resources 	20
scalar Network300.node230 	query_homogenity_rate 	33.333333333333
scalar Network300.node230 	qrecord_time 	15126.189632521
scalar Network300.node230 	discovery_resolution_rate 	33.333333333333
scalar Network300.node10 	rate_of_requesters 	1
scalar Network300.node10 	number_of_resources 	16500
scalar Network300.node10 	time_period 	4
scalar Network300.node10 	number_of_messages 	29
scalar Network300.node10 	discovery_latency 	1440
scalar Network300.node10 	number_of_desired_resources 	20
scalar Network300.node10 	query_homogenity_rate 	33.333333333333
scalar Network300.node10 	qrecord_time 	15163.185322338
scalar Network300.node10 	discovery_resolution_rate 	66.666666666667
scalar Network300.node150 	rate_of_requesters 	1
scalar Network300.node150 	number_of_resources 	16500
scalar Network300.node150 	time_period 	4
scalar Network300.node150 	number_of_messages 	33
scalar Network300.node150 	discovery_latency 	1656
scalar Network300.node150 	number_of_desired_resources 	20
scalar Network300.node150 	query_homogenity_rate 	33.333333333333
scalar Network300.node150 	qrecord_time 	15225.327676693
scalar Network300.node150 	discovery_resolution_rate 	66.666666666667
scalar Network300.node50 	rate_of_requesters 	1
scalar Network300.node50 	number_of_resources 	16500
scalar Network300.node50 	time_period 	3
scalar Network300.node50 	number_of_messages 	13
scalar Network300.node50 	discovery_latency 	1656
scalar Network300.node50 	number_of_desired_resources 	20
scalar Network300.node50 	query_homogenity_rate 	33.333333333333
scalar Network300.node50 	qrecord_time 	15242.378147938
scalar Network300.node50 	discovery_resolution_rate 	33.333333333333
scalar Network300.node200 	rate_of_requesters 	1
scalar Network300.node200 	number_of_resources 	16500
scalar Network300.node200 	time_period 	4
scalar Network300.node200 	number_of_messages 	57
scalar Network300.node200 	discovery_latency 	1488
scalar Network300.node200 	number_of_desired_resources 	20
scalar Network300.node200 	query_homogenity_rate 	33.333333333333
scalar Network300.node200 	qrecord_time 	15315.557655976
scalar Network300.node200 	discovery_resolution_rate 	66.666666666667
scalar Network300.node180 	rate_of_requesters 	1
scalar Network300.node180 	number_of_resources 	16500
scalar Network300.node180 	time_period 	5
scalar Network300.node180 	number_of_messages 	34
scalar Network300.node180 	discovery_latency 	1572
scalar Network300.node180 	number_of_desired_resources 	20
scalar Network300.node180 	query_homogenity_rate 	33.333333333333
scalar Network300.node180 	qrecord_time 	15501.118070901
scalar Network300.node180 	discovery_resolution_rate 	33.333333333333
scalar Network300.node80 	rate_of_requesters 	1
scalar Network300.node80 	number_of_resources 	16500
scalar Network300.node80 	time_period 	3
scalar Network300.node80 	number_of_messages 	13
scalar Network300.node80 	discovery_latency 	1584
scalar Network300.node80 	number_of_desired_resources 	20
scalar Network300.node80 	query_homogenity_rate 	33.333333333333
scalar Network300.node80 	qrecord_time 	15691.36936678
scalar Network300.node80 	discovery_resolution_rate 	66.666666666667
scalar Network300.node160 	rate_of_requesters 	1
scalar Network300.node160 	number_of_resources 	16500
scalar Network300.node160 	time_period 	6
scalar Network300.node160 	number_of_messages 	14
scalar Network300.node160 	discovery_latency 	1560
scalar Network300.node160 	number_of_desired_resources 	20
scalar Network300.node160 	query_homogenity_rate 	33.333333333333
scalar Network300.node160 	qrecord_time 	15716.89239344
scalar Network300.node160 	discovery_resolution_rate 	33.333333333333
scalar Network300.node290 	rate_of_requesters 	1
scalar Network300.node290 	number_of_resources 	16500
scalar Network300.node290 	time_period 	4
scalar Network300.node290 	number_of_messages 	7
scalar Network300.node290 	discovery_latency 	1536
scalar Network300.node290 	number_of_desired_resources 	20
scalar Network300.node290 	query_homogenity_rate 	33.333333333333
scalar Network300.node290 	qrecord_time 	15803.517985256
scalar Network300.node290 	discovery_resolution_rate 	33.333333333333
scalar Network300.node20 	rate_of_requesters 	1
scalar Network300.node20 	number_of_resources 	16500
scalar Network300.node20 	time_period 	5
scalar Network300.node20 	number_of_messages 	17
scalar Network300.node20 	discovery_latency 	1608
scalar Network300.node20 	number_of_desired_resources 	20
scalar Network300.node20 	query_homogenity_rate 	33.333333333333
scalar Network300.node20 	qrecord_time 	15886.883990903
scalar Network300.node20 	discovery_resolution_rate 	33.333333333333
scalar Network300.node140 	rate_of_requesters 	1
scalar Network300.node140 	number_of_resources 	16500
scalar Network300.node140 	time_period 	4
scalar Network300.node140 	number_of_messages 	27
scalar Network300.node140 	discovery_latency 	1488
scalar Network300.node140 	number_of_desired_resources 	20
scalar Network300.node140 	query_homogenity_rate 	33.333333333333
scalar Network300.node140 	qrecord_time 	16044.645681294
scalar Network300.node140 	discovery_resolution_rate 	33.333333333333
scalar Network300.node40 	rate_of_requesters 	1
scalar Network300.node40 	number_of_resources 	16500
scalar Network300.node40 	time_period 	6
scalar Network300.node40 	number_of_messages 	4
scalar Network300.node40 	discovery_latency 	1548
scalar Network300.node40 	number_of_desired_resources 	20
scalar Network300.node40 	query_homogenity_rate 	33.333333333333
scalar Network300.node40 	qrecord_time 	16343.480998113
scalar Network300.node40 	discovery_resolution_rate 	33.333333333333
scalar Network300.node30 	rate_of_requesters 	1
scalar Network300.node30 	number_of_resources 	16500
scalar Network300.node30 	time_period 	8
scalar Network300.node30 	number_of_messages 	7
scalar Network300.node30 	discovery_latency 	1608
scalar Network300.node30 	number_of_desired_resources 	20
scalar Network300.node30 	query_homogenity_rate 	33.333333333333
scalar Network300.node30 	qrecord_time 	16346.614065674
scalar Network300.node30 	discovery_resolution_rate 	33.333333333333
scalar Network300.node100 	rate_of_requesters 	1
scalar Network300.node100 	number_of_resources 	16500
scalar Network300.node100 	time_period 	5
scalar Network300.node100 	number_of_messages 	77
scalar Network300.node100 	discovery_latency 	1632
scalar Network300.node100 	number_of_desired_resources 	20
scalar Network300.node100 	query_homogenity_rate 	33.333333333333
scalar Network300.node100 	qrecord_time 	16429.291284425
scalar Network300.node100 	discovery_resolution_rate 	66.666666666667
scalar Network300.node150 	rate_of_requesters 	1
scalar Network300.node150 	number_of_resources 	16500
scalar Network300.node150 	time_period 	5
scalar Network300.node150 	number_of_messages 	95
scalar Network300.node150 	discovery_latency 	1224
scalar Network300.node150 	number_of_desired_resources 	20
scalar Network300.node150 	query_homogenity_rate 	33.333333333333
scalar Network300.node150 	qrecord_time 	16447.247929957
scalar Network300.node150 	discovery_resolution_rate 	100
scalar Network300.node10 	rate_of_requesters 	1
scalar Network300.node10 	number_of_resources 	16500
scalar Network300.node10 	time_period 	5
scalar Network300.node10 	number_of_messages 	31
scalar Network300.node10 	discovery_latency 	1632
scalar Network300.node10 	number_of_desired_resources 	20
scalar Network300.node10 	query_homogenity_rate 	33.333333333333
scalar Network300.node10 	qrecord_time 	16500.331516837
scalar Network300.node10 	discovery_resolution_rate 	33.333333333333
scalar Network300.node60 	rate_of_requesters 	1
scalar Network300.node60 	number_of_resources 	16500
scalar Network300.node60 	time_period 	5
scalar Network300.node60 	number_of_messages 	69
scalar Network300.node60 	discovery_latency 	1440
scalar Network300.node60 	number_of_desired_resources 	20
scalar Network300.node60 	query_homogenity_rate 	33.333333333333
scalar Network300.node60 	qrecord_time 	16609.218863937
scalar Network300.node60 	discovery_resolution_rate 	66.666666666667
scalar Network300.node20 	rate_of_requesters 	1
scalar Network300.node20 	number_of_resources 	16500
scalar Network300.node20 	time_period 	6
scalar Network300.node20 	number_of_messages 	46
scalar Network300.node20 	discovery_latency 	1548
scalar Network300.node20 	number_of_desired_resources 	20
scalar Network300.node20 	query_homogenity_rate 	33.333333333333
scalar Network300.node20 	qrecord_time 	16673.997226994
scalar Network300.node20 	discovery_resolution_rate 	33.333333333333
scalar Network300.node110 	rate_of_requesters 	1
scalar Network300.node110 	number_of_resources 	16500
scalar Network300.node110 	time_period 	2
scalar Network300.node110 	number_of_messages 	12
scalar Network300.node110 	discovery_latency 	1584
scalar Network300.node110 	number_of_desired_resources 	20
scalar Network300.node110 	query_homogenity_rate 	33.333333333333
scalar Network300.node110 	qrecord_time 	16894.895547205
scalar Network300.node110 	discovery_resolution_rate 	33.333333333333
scalar Network300.node210 	rate_of_requesters 	1
scalar Network300.node210 	number_of_resources 	16500
scalar Network300.node210 	time_period 	4
scalar Network300.node210 	number_of_messages 	20
scalar Network300.node210 	discovery_latency 	1560
scalar Network300.node210 	number_of_desired_resources 	20
scalar Network300.node210 	query_homogenity_rate 	33.333333333333
scalar Network300.node210 	qrecord_time 	16912.591345497
scalar Network300.node210 	discovery_resolution_rate 	66.666666666667
scalar Network300.node230 	rate_of_requesters 	1
scalar Network300.node230 	number_of_resources 	16500
scalar Network300.node230 	time_period 	6
scalar Network300.node230 	number_of_messages 	70
scalar Network300.node230 	discovery_latency 	1488
scalar Network300.node230 	number_of_desired_resources 	20
scalar Network300.node230 	query_homogenity_rate 	33.333333333333
scalar Network300.node230 	qrecord_time 	17158.640359671
scalar Network300.node230 	discovery_resolution_rate 	66.666666666667
scalar Network300.node80 	rate_of_requesters 	1
scalar Network300.node80 	number_of_resources 	16500
scalar Network300.node80 	time_period 	4
scalar Network300.node80 	number_of_messages 	53
scalar Network300.node80 	discovery_latency 	1512
scalar Network300.node80 	number_of_desired_resources 	20
scalar Network300.node80 	query_homogenity_rate 	33.333333333333
scalar Network300.node80 	qrecord_time 	17224.641668484
scalar Network300.node80 	discovery_resolution_rate 	66.666666666667
scalar Network300.node280 	rate_of_requesters 	1
scalar Network300.node280 	number_of_resources 	16500
scalar Network300.node280 	time_period 	4
scalar Network300.node280 	number_of_messages 	90
scalar Network300.node280 	discovery_latency 	1620
scalar Network300.node280 	number_of_desired_resources 	20
scalar Network300.node280 	query_homogenity_rate 	33.333333333333
scalar Network300.node280 	qrecord_time 	17262.595351991
scalar Network300.node280 	discovery_resolution_rate 	66.666666666667
scalar Network300.node200 	rate_of_requesters 	1
scalar Network300.node200 	number_of_resources 	16500
scalar Network300.node200 	time_period 	5
scalar Network300.node200 	number_of_messages 	112
scalar Network300.node200 	discovery_latency 	1296
scalar Network300.node200 	number_of_desired_resources 	20
scalar Network300.node200 	query_homogenity_rate 	33.333333333333
scalar Network300.node200 	qrecord_time 	17597.297921155
scalar Network300.node200 	discovery_resolution_rate 	100
scalar Network300.node90 	rate_of_requesters 	1
scalar Network300.node90 	number_of_resources 	16500
scalar Network300.node90 	time_period 	4
scalar Network300.node90 	number_of_messages 	19
scalar Network300.node90 	discovery_latency 	1656
scalar Network300.node90 	number_of_desired_resources 	20
scalar Network300.node90 	query_homogenity_rate 	33.333333333333
scalar Network300.node90 	qrecord_time 	17647.269017387
scalar Network300.node90 	discovery_resolution_rate 	66.666666666667
scalar Network300.node70 	rate_of_requesters 	1
scalar Network300.node70 	number_of_resources 	16500
scalar Network300.node70 	time_period 	5
scalar Network300.node70 	number_of_messages 	5
scalar Network300.node70 	discovery_latency 	1572
scalar Network300.node70 	number_of_desired_resources 	20
scalar Network300.node70 	query_homogenity_rate 	33.333333333333
scalar Network300.node70 	qrecord_time 	17749.475229762
scalar Network300.node70 	discovery_resolution_rate 	33.333333333333
scalar Network300.node280 	rate_of_requesters 	1
scalar Network300.node280 	number_of_resources 	16500
scalar Network300.node280 	time_period 	5
scalar Network300.node280 	number_of_messages 	59
scalar Network300.node280 	discovery_latency 	804
scalar Network300.node280 	number_of_desired_resources 	20
scalar Network300.node280 	query_homogenity_rate 	33.333333333333
scalar Network300.node280 	qrecord_time 	17864.581308452
scalar Network300.node280 	discovery_resolution_rate 	100
scalar Network300.node90 	rate_of_requesters 	1
scalar Network300.node90 	number_of_resources 	16500
scalar Network300.node90 	time_period 	5
scalar Network300.node90 	number_of_messages 	14
scalar Network300.node90 	discovery_latency 	1572
scalar Network300.node90 	number_of_desired_resources 	20
scalar Network300.node90 	query_homogenity_rate 	33.333333333333
scalar Network300.node90 	qrecord_time 	17871.543656055
scalar Network300.node90 	discovery_resolution_rate 	33.333333333333
scalar Network300.node200 	rate_of_requesters 	1
scalar Network300.node200 	number_of_resources 	16500
scalar Network300.node200 	time_period 	6
scalar Network300.node200 	number_of_messages 	16
scalar Network300.node200 	discovery_latency 	1572
scalar Network300.node200 	number_of_desired_resources 	20
scalar Network300.node200 	query_homogenity_rate 	33.333333333333
scalar Network300.node200 	qrecord_time 	17885.907744995
scalar Network300.node200 	discovery_resolution_rate 	33.333333333333
scalar Network300.node90 	rate_of_requesters 	1
scalar Network300.node90 	number_of_resources 	16500
scalar Network300.node90 	time_period 	6
scalar Network300.node90 	number_of_messages 	21
scalar Network300.node90 	discovery_latency 	1560
scalar Network300.node90 	number_of_desired_resources 	20
scalar Network300.node90 	query_homogenity_rate 	33.333333333333
scalar Network300.node90 	qrecord_time 	17917.558136397
scalar Network300.node90 	discovery_resolution_rate 	33.333333333333
scalar Network300.node210 	rate_of_requesters 	1
scalar Network300.node210 	number_of_resources 	16500
scalar Network300.node210 	time_period 	5
scalar Network300.node210 	number_of_messages 	15
scalar Network300.node210 	discovery_latency 	1572
scalar Network300.node210 	number_of_desired_resources 	20
scalar Network300.node210 	query_homogenity_rate 	33.333333333333
scalar Network300.node210 	qrecord_time 	18292.288861072
scalar Network300.node210 	discovery_resolution_rate 	33.333333333333
scalar Network300.node110 	rate_of_requesters 	1
scalar Network300.node110 	number_of_resources 	16500
scalar Network300.node110 	time_period 	3
scalar Network300.node110 	number_of_messages 	22
scalar Network300.node110 	discovery_latency 	1656
scalar Network300.node110 	number_of_desired_resources 	20
scalar Network300.node110 	query_homogenity_rate 	33.333333333333
scalar Network300.node110 	qrecord_time 	18470.568135269
scalar Network300.node110 	discovery_resolution_rate 	33.333333333333
scalar Network300.node40 	rate_of_requesters 	1
scalar Network300.node40 	number_of_resources 	16500
scalar Network300.node40 	time_period 	7
scalar Network300.node40 	number_of_messages 	6
scalar Network300.node40 	discovery_latency 	1524
scalar Network300.node40 	number_of_desired_resources 	20
scalar Network300.node40 	query_homogenity_rate 	33.333333333333
scalar Network300.node40 	qrecord_time 	18529.135273048
scalar Network300.node40 	discovery_resolution_rate 	33.333333333333
scalar Network300.node140 	rate_of_requesters 	1
scalar Network300.node140 	number_of_resources 	16500
scalar Network300.node140 	time_period 	6
scalar Network300.node140 	number_of_messages 	64
scalar Network300.node140 	discovery_latency 	468
scalar Network300.node140 	number_of_desired_resources 	20
scalar Network300.node140 	query_homogenity_rate 	33.333333333333
scalar Network300.node140 	qrecord_time 	18542.834686378
scalar Network300.node140 	discovery_resolution_rate 	100
scalar Network300.node210 	rate_of_requesters 	1
scalar Network300.node210 	number_of_resources 	16500
scalar Network300.node210 	time_period 	6
scalar Network300.node210 	number_of_messages 	10
scalar Network300.node210 	discovery_latency 	1548
scalar Network300.node210 	number_of_desired_resources 	20
scalar Network300.node210 	query_homogenity_rate 	33.333333333333
scalar Network300.node210 	qrecord_time 	18799.87021035
scalar Network300.node210 	discovery_resolution_rate 	33.333333333333
scalar Network300.node130 	rate_of_requesters 	1
scalar Network300.node130 	number_of_resources 	16500
scalar Network300.node130 	time_period 	4
scalar Network300.node130 	number_of_messages 	27
scalar Network300.node130 	discovery_latency 	1608
scalar Network300.node130 	number_of_desired_resources 	20
scalar Network300.node130 	query_homogenity_rate 	33.333333333333
scalar Network300.node130 	qrecord_time 	19270.006816979
scalar Network300.node130 	discovery_resolution_rate 	33.333333333333
scalar Network300.node240 	rate_of_requesters 	1
scalar Network300.node240 	number_of_resources 	16500
scalar Network300.node240 	time_period 	8
scalar Network300.node240 	number_of_messages 	6
scalar Network300.node240 	discovery_latency 	1668
scalar Network300.node240 	number_of_desired_resources 	20
scalar Network300.node240 	query_homogenity_rate 	33.333333333333
scalar Network300.node240 	qrecord_time 	19330.811466225
scalar Network300.node240 	discovery_resolution_rate 	33.333333333333
scalar Network300.node140 	rate_of_requesters 	1
scalar Network300.node140 	number_of_resources 	16500
scalar Network300.node140 	time_period 	5
scalar Network300.node140 	number_of_messages 	71
scalar Network300.node140 	discovery_latency 	1692
scalar Network300.node140 	number_of_desired_resources 	20
scalar Network300.node140 	query_homogenity_rate 	33.333333333333
scalar Network300.node140 	qrecord_time 	19344.628350066
scalar Network300.node140 	discovery_resolution_rate 	66.666666666667
scalar Network300.node0 	rate_of_requesters 	1
scalar Network300.node0 	number_of_resources 	16500
scalar Network300.node0 	time_period 	8
scalar Network300.node0 	number_of_messages 	27
scalar Network300.node0 	discovery_latency 	1512
scalar Network300.node0 	number_of_desired_resources 	20
scalar Network300.node0 	query_homogenity_rate 	33.333333333333
scalar Network300.node0 	qrecord_time 	19504.371310642
scalar Network300.node0 	discovery_resolution_rate 	66.666666666667
scalar Network300.node100 	rate_of_requesters 	1
scalar Network300.node100 	number_of_resources 	16500
scalar Network300.node100 	time_period 	6
scalar Network300.node100 	number_of_messages 	9
scalar Network300.node100 	discovery_latency 	1656
scalar Network300.node100 	number_of_desired_resources 	20
scalar Network300.node100 	query_homogenity_rate 	33.333333333333
scalar Network300.node100 	qrecord_time 	19925.227902323
scalar Network300.node100 	discovery_resolution_rate 	33.333333333333
scalar Network300.node140 	rate_of_requesters 	1
scalar Network300.node140 	number_of_resources 	16500
scalar Network300.node140 	time_period 	7
scalar Network300.node140 	number_of_messages 	15
scalar Network300.node140 	discovery_latency 	1668
scalar Network300.node140 	number_of_desired_resources 	20
scalar Network300.node140 	query_homogenity_rate 	33.333333333333
scalar Network300.node140 	qrecord_time 	19933.912276118
scalar Network300.node140 	discovery_resolution_rate 	33.333333333333
scalar Network300.node230 	rate_of_requesters 	1
scalar Network300.node230 	number_of_resources 	16500
scalar Network300.node230 	time_period 	7
scalar Network300.node230 	number_of_messages 	78
scalar Network300.node230 	discovery_latency 	996
scalar Network300.node230 	number_of_desired_resources 	20
scalar Network300.node230 	query_homogenity_rate 	33.333333333333
scalar Network300.node230 	qrecord_time 	20012.399455232
scalar Network300.node230 	discovery_resolution_rate 	100
scalar Network300.node260 	rate_of_requesters 	1
scalar Network300.node260 	number_of_resources 	16500
scalar Network300.node260 	time_period 	3
scalar Network300.node260 	number_of_messages 	11
scalar Network300.node260 	discovery_latency 	1572
scalar Network300.node260 	number_of_desired_resources 	20
scalar Network300.node260 	query_homogenity_rate 	33.333333333333
scalar Network300.node260 	qrecord_time 	20224.395452335
scalar Network300.node260 	discovery_resolution_rate 	33.333333333333
scalar Network300.node240 	rate_of_requesters 	1
scalar Network300.node240 	number_of_resources 	16500
scalar Network300.node240 	time_period 	9
scalar Network300.node240 	number_of_messages 	149
scalar Network300.node240 	discovery_latency 	1392
scalar Network300.node240 	number_of_desired_resources 	20
scalar Network300.node240 	query_homogenity_rate 	33.333333333333
scalar Network300.node240 	qrecord_time 	20301.252869733
scalar Network300.node240 	discovery_resolution_rate 	100
scalar Network300.node180 	rate_of_requesters 	1
scalar Network300.node180 	number_of_resources 	16500
scalar Network300.node180 	time_period 	6
scalar Network300.node180 	number_of_messages 	87
scalar Network300.node180 	discovery_latency 	1620
scalar Network300.node180 	number_of_desired_resources 	20
scalar Network300.node180 	query_homogenity_rate 	33.333333333333
scalar Network300.node180 	qrecord_time 	20413.974568978
scalar Network300.node180 	discovery_resolution_rate 	66.666666666667
scalar Network300.node230 	rate_of_requesters 	1
scalar Network300.node230 	number_of_resources 	16500
scalar Network300.node230 	time_period 	8
scalar Network300.node230 	number_of_messages 	6
scalar Network300.node230 	discovery_latency 	1488
scalar Network300.node230 	number_of_desired_resources 	20
scalar Network300.node230 	query_homogenity_rate 	33.333333333333
scalar Network300.node230 	qrecord_time 	20724.148608015
scalar Network300.node230 	discovery_resolution_rate 	33.333333333333
scalar Network300.node120 	rate_of_requesters 	1
scalar Network300.node120 	number_of_resources 	16500
scalar Network300.node120 	time_period 	7
scalar Network300.node120 	number_of_messages 	7
scalar Network300.node120 	discovery_latency 	1644
scalar Network300.node120 	number_of_desired_resources 	20
scalar Network300.node120 	query_homogenity_rate 	33.333333333333
scalar Network300.node120 	qrecord_time 	20827.329731427
scalar Network300.node120 	discovery_resolution_rate 	33.333333333333
scalar Network300.node10 	rate_of_requesters 	1
scalar Network300.node10 	number_of_resources 	16500
scalar Network300.node10 	time_period 	6
scalar Network300.node10 	number_of_messages 	11
scalar Network300.node10 	discovery_latency 	1584
scalar Network300.node10 	number_of_desired_resources 	20
scalar Network300.node10 	query_homogenity_rate 	33.333333333333
scalar Network300.node10 	qrecord_time 	20852.644353437
scalar Network300.node10 	discovery_resolution_rate 	33.333333333333
scalar Network300.node290 	rate_of_requesters 	1
scalar Network300.node290 	number_of_resources 	16500
scalar Network300.node290 	time_period 	6
scalar Network300.node290 	number_of_messages 	58
scalar Network300.node290 	discovery_latency 	588
scalar Network300.node290 	number_of_desired_resources 	20
scalar Network300.node290 	query_homogenity_rate 	33.333333333333
scalar Network300.node290 	qrecord_time 	21169.167804599
scalar Network300.node290 	discovery_resolution_rate 	100
scalar Network300.node230 	rate_of_requesters 	1
scalar Network300.node230 	number_of_resources 	16500
scalar Network300.node230 	time_period 	9
scalar Network300.node230 	number_of_messages 	6
scalar Network300.node230 	discovery_latency 	1620
scalar Network300.node230 	number_of_desired_resources 	20
scalar Network300.node230 	query_homogenity_rate 	33.333333333333
scalar Network300.node230 	qrecord_time 	21184.547969185
scalar Network300.node230 	discovery_resolution_rate 	33.333333333333
scalar Network300.node80 	rate_of_requesters 	1
scalar Network300.node80 	number_of_resources 	16500
scalar Network300.node80 	time_period 	5
scalar Network300.node80 	number_of_messages 	53
scalar Network300.node80 	discovery_latency 	1656
scalar Network300.node80 	number_of_desired_resources 	20
scalar Network300.node80 	query_homogenity_rate 	33.333333333333
scalar Network300.node80 	qrecord_time 	21444.259038619
[...]
scalar Network300.node200 	time_period 	8
scalar Network300.node200 	number_of_messages 	60
scalar Network300.node200 	discovery_latency 	876
scalar Network300.node200 	number_of_desired_resources 	20
scalar Network300.node200 	query_homogenity_rate 	33.333333333333
scalar Network300.node200 	qrecord_time 	38164.753903964
scalar Network300.node200 	discovery_resolution_rate 	100
scalar Network300.node270 	rate_of_requesters 	1
scalar Network300.node270 	number_of_resources 	16500
scalar Network300.node270 	time_period 	6
scalar Network300.node270 	number_of_messages 	66
scalar Network300.node270 	discovery_latency 	1464
scalar Network300.node270 	number_of_desired_resources 	20
scalar Network300.node270 	query_homogenity_rate 	33.333333333333
scalar Network300.node270 	qrecord_time 	38177.450147442
scalar Network300.node270 	discovery_resolution_rate 	66.666666666667
scalar Network300.node70 	rate_of_requesters 	1
scalar Network300.node70 	number_of_resources 	16500
scalar Network300.node70 	time_period 	10
scalar Network300.node70 	number_of_messages 	89
scalar Network300.node70 	discovery_latency 	1296
scalar Network300.node70 	number_of_desired_resources 	20
scalar Network300.node70 	query_homogenity_rate 	33.333333333333
scalar Network300.node70 	qrecord_time 	39012.303697709
scalar Network300.node70 	discovery_resolution_rate 	100
scalar Network300.node70 	rate_of_requesters 	1
scalar Network300.node70 	number_of_resources 	16500
scalar Network300.node70 	time_period 	9
scalar Network300.node70 	number_of_messages 	66
scalar Network300.node70 	discovery_latency 	1560
scalar Network300.node70 	number_of_desired_resources 	20
scalar Network300.node70 	query_homogenity_rate 	33.333333333333
scalar Network300.node70 	qrecord_time 	39156.861296372
scalar Network300.node70 	discovery_resolution_rate 	66.666666666667
scalar Network300.node50 	rate_of_requesters 	1
scalar Network300.node50 	number_of_resources 	16500
scalar Network300.node50 	time_period 	10
scalar Network300.node50 	number_of_messages 	102
scalar Network300.node50 	discovery_latency 	1584
scalar Network300.node50 	number_of_desired_resources 	20
scalar Network300.node50 	query_homogenity_rate 	33.333333333333
scalar Network300.node50 	qrecord_time 	39300.818623223
scalar Network300.node50 	discovery_resolution_rate 	83.333333333333
scalar Network300.node290 	rate_of_requesters 	1
scalar Network300.node290 	number_of_resources 	16500
scalar Network300.node290 	time_period 	9
scalar Network300.node290 	number_of_messages 	59
scalar Network300.node290 	discovery_latency 	1656
scalar Network300.node290 	number_of_desired_resources 	20
scalar Network300.node290 	query_homogenity_rate 	33.333333333333
scalar Network300.node290 	qrecord_time 	39771.202859114
scalar Network300.node290 	discovery_resolution_rate 	66.666666666667
scalar Network300.node270 	rate_of_requesters 	1
scalar Network300.node270 	number_of_resources 	16500
scalar Network300.node270 	time_period 	7
scalar Network300.node270 	number_of_messages 	33
scalar Network300.node270 	discovery_latency 	1524
scalar Network300.node270 	number_of_desired_resources 	20
scalar Network300.node270 	query_homogenity_rate 	33.333333333333
scalar Network300.node270 	qrecord_time 	39964.415854557
scalar Network300.node270 	discovery_resolution_rate 	66.666666666667
scalar Network300.node170 	rate_of_requesters 	1
scalar Network300.node170 	number_of_resources 	16500
scalar Network300.node170 	time_period 	8
scalar Network300.node170 	number_of_messages 	5
scalar Network300.node170 	discovery_latency 	1560
scalar Network300.node170 	number_of_desired_resources 	20
scalar Network300.node170 	query_homogenity_rate 	33.333333333333
scalar Network300.node170 	qrecord_time 	40018.543500349
scalar Network300.node170 	discovery_resolution_rate 	33.333333333333
scalar Network300.node170 	rate_of_requesters 	1
scalar Network300.node170 	number_of_resources 	16500
scalar Network300.node170 	time_period 	9
scalar Network300.node170 	number_of_messages 	68
scalar Network300.node170 	discovery_latency 	900.00000000001
scalar Network300.node170 	number_of_desired_resources 	20
scalar Network300.node170 	query_homogenity_rate 	33.333333333333
scalar Network300.node170 	qrecord_time 	40046.319529397
scalar Network300.node170 	discovery_resolution_rate 	100
scalar Network300.node160 	rate_of_requesters 	1
scalar Network300.node160 	number_of_resources 	16500
scalar Network300.node160 	time_period 	10
scalar Network300.node160 	number_of_messages 	11
scalar Network300.node160 	discovery_latency 	1584
scalar Network300.node160 	number_of_desired_resources 	20
scalar Network300.node160 	query_homogenity_rate 	33.333333333333
scalar Network300.node160 	qrecord_time 	40594.789081553
scalar Network300.node160 	discovery_resolution_rate 	33.333333333333
scalar Network300.node190 	rate_of_requesters 	1
scalar Network300.node190 	number_of_resources 	16500
scalar Network300.node190 	time_period 	6
scalar Network300.node190 	number_of_messages 	3
scalar Network300.node190 	discovery_latency 	1512
scalar Network300.node190 	number_of_desired_resources 	20
scalar Network300.node190 	query_homogenity_rate 	33.333333333333
scalar Network300.node190 	qrecord_time 	40863.764339999
scalar Network300.node190 	discovery_resolution_rate 	33.333333333333
scalar Network300.node290 	rate_of_requesters 	1
scalar Network300.node290 	number_of_resources 	16500
scalar Network300.node290 	time_period 	10
scalar Network300.node290 	number_of_messages 	52
scalar Network300.node290 	discovery_latency 	1584
scalar Network300.node290 	number_of_desired_resources 	20
scalar Network300.node290 	query_homogenity_rate 	33.333333333333
scalar Network300.node290 	qrecord_time 	40950.598972997
scalar Network300.node290 	discovery_resolution_rate 	66.666666666667
scalar Network300.node190 	rate_of_requesters 	1
scalar Network300.node190 	number_of_resources 	16500
scalar Network300.node190 	time_period 	7
scalar Network300.node190 	number_of_messages 	55
scalar Network300.node190 	discovery_latency 	816
scalar Network300.node190 	number_of_desired_resources 	20
scalar Network300.node190 	query_homogenity_rate 	33.333333333333
scalar Network300.node190 	qrecord_time 	41804.251012633
scalar Network300.node190 	discovery_resolution_rate 	100
scalar Network300.node170 	rate_of_requesters 	1
scalar Network300.node170 	number_of_resources 	16500
scalar Network300.node170 	time_period 	10
scalar Network300.node170 	number_of_messages 	36
scalar Network300.node170 	discovery_latency 	336.00000000001
scalar Network300.node170 	number_of_desired_resources 	20
scalar Network300.node170 	query_homogenity_rate 	33.333333333333
scalar Network300.node170 	qrecord_time 	42476.261753221
scalar Network300.node170 	discovery_resolution_rate 	100
scalar Network300.node200 	rate_of_requesters 	1
scalar Network300.node200 	number_of_resources 	16500
scalar Network300.node200 	time_period 	9
scalar Network300.node200 	number_of_messages 	41
scalar Network300.node200 	discovery_latency 	468
scalar Network300.node200 	number_of_desired_resources 	20
scalar Network300.node200 	query_homogenity_rate 	33.333333333333
scalar Network300.node200 	qrecord_time 	42665.503359861
scalar Network300.node200 	discovery_resolution_rate 	100
scalar Network300.node220 	rate_of_requesters 	1
scalar Network300.node220 	number_of_resources 	16500
scalar Network300.node220 	time_period 	8
scalar Network300.node220 	number_of_messages 	89
scalar Network300.node220 	discovery_latency 	924
scalar Network300.node220 	number_of_desired_resources 	20
scalar Network300.node220 	query_homogenity_rate 	33.333333333333
scalar Network300.node220 	qrecord_time 	43316.433870816
scalar Network300.node220 	discovery_resolution_rate 	100
scalar Network300.node190 	rate_of_requesters 	1
scalar Network300.node190 	number_of_resources 	16500
scalar Network300.node190 	time_period 	9
scalar Network300.node190 	number_of_messages 	81
scalar Network300.node190 	discovery_latency 	900
scalar Network300.node190 	number_of_desired_resources 	20
scalar Network300.node190 	query_homogenity_rate 	33.333333333333
scalar Network300.node190 	qrecord_time 	43347.642570165
scalar Network300.node190 	discovery_resolution_rate 	100
scalar Network300.node190 	rate_of_requesters 	1
scalar Network300.node190 	number_of_resources 	16500
scalar Network300.node190 	time_period 	8
scalar Network300.node190 	number_of_messages 	74
scalar Network300.node190 	discovery_latency 	948
scalar Network300.node190 	number_of_desired_resources 	20
scalar Network300.node190 	query_homogenity_rate 	33.333333333333
scalar Network300.node190 	qrecord_time 	43388.347273717
scalar Network300.node190 	discovery_resolution_rate 	100
scalar Network300.node200 	rate_of_requesters 	1
scalar Network300.node200 	number_of_resources 	16500
scalar Network300.node200 	time_period 	10
scalar Network300.node200 	number_of_messages 	103
scalar Network300.node200 	discovery_latency 	1356
scalar Network300.node200 	number_of_desired_resources 	20
scalar Network300.node200 	query_homogenity_rate 	33.333333333333
scalar Network300.node200 	qrecord_time 	44177.342118853
scalar Network300.node200 	discovery_resolution_rate 	100
scalar Network300.node20 	rate_of_requesters 	1
scalar Network300.node20 	number_of_resources 	16500
scalar Network300.node20 	time_period 	9
scalar Network300.node20 	number_of_messages 	34
scalar Network300.node20 	discovery_latency 	1476
scalar Network300.node20 	number_of_desired_resources 	20
scalar Network300.node20 	query_homogenity_rate 	33.333333333333
scalar Network300.node20 	qrecord_time 	45265.975091266
scalar Network300.node20 	discovery_resolution_rate 	66.666666666667
scalar Network300.node120 	rate_of_requesters 	1
scalar Network300.node120 	number_of_resources 	16500
scalar Network300.node120 	time_period 	8
scalar Network300.node120 	number_of_messages 	96
scalar Network300.node120 	discovery_latency 	1356
scalar Network300.node120 	number_of_desired_resources 	20
scalar Network300.node120 	query_homogenity_rate 	33.333333333333
scalar Network300.node120 	qrecord_time 	45498.460381293
scalar Network300.node120 	discovery_resolution_rate 	100
scalar Network300.node120 	rate_of_requesters 	1
scalar Network300.node120 	number_of_resources 	16500
scalar Network300.node120 	time_period 	9
scalar Network300.node120 	number_of_messages 	25
scalar Network300.node120 	discovery_latency 	1476
scalar Network300.node120 	number_of_desired_resources 	20
scalar Network300.node120 	query_homogenity_rate 	33.333333333333
scalar Network300.node120 	qrecord_time 	45740.859922536
scalar Network300.node120 	discovery_resolution_rate 	66.666666666667
scalar Network300.node90 	rate_of_requesters 	1
scalar Network300.node90 	number_of_resources 	16500
scalar Network300.node90 	time_period 	10
scalar Network300.node90 	number_of_messages 	17
scalar Network300.node90 	discovery_latency 	1608
scalar Network300.node90 	number_of_desired_resources 	20
scalar Network300.node90 	query_homogenity_rate 	33.333333333333
scalar Network300.node90 	qrecord_time 	45857.23765776
scalar Network300.node90 	discovery_resolution_rate 	66.666666666667
scalar Network300.node260 	rate_of_requesters 	1
scalar Network300.node260 	number_of_resources 	16500
scalar Network300.node260 	time_period 	5
scalar Network300.node260 	number_of_messages 	51
scalar Network300.node260 	discovery_latency 	816
scalar Network300.node260 	number_of_desired_resources 	20
scalar Network300.node260 	query_homogenity_rate 	33.333333333333
scalar Network300.node260 	qrecord_time 	46581.940101975
scalar Network300.node260 	discovery_resolution_rate 	100
scalar Network300.node220 	rate_of_requesters 	1
scalar Network300.node220 	number_of_resources 	16500
scalar Network300.node220 	time_period 	9
scalar Network300.node220 	number_of_messages 	77
scalar Network300.node220 	discovery_latency 	1152
scalar Network300.node220 	number_of_desired_resources 	20
scalar Network300.node220 	query_homogenity_rate 	33.333333333333
scalar Network300.node220 	qrecord_time 	46845.749201742
scalar Network300.node220 	discovery_resolution_rate 	100
scalar Network300.node60 	rate_of_requesters 	1
scalar Network300.node60 	number_of_resources 	16500
scalar Network300.node60 	time_period 	10
scalar Network300.node60 	number_of_messages 	44
scalar Network300.node60 	discovery_latency 	360
scalar Network300.node60 	number_of_desired_resources 	20
scalar Network300.node60 	query_homogenity_rate 	33.333333333333
scalar Network300.node60 	qrecord_time 	47459.38475078
scalar Network300.node60 	discovery_resolution_rate 	100
scalar Network300.node270 	rate_of_requesters 	1
scalar Network300.node270 	number_of_resources 	16500
scalar Network300.node270 	time_period 	8
scalar Network300.node270 	number_of_messages 	101
scalar Network300.node270 	discovery_latency 	1092
scalar Network300.node270 	number_of_desired_resources 	20
scalar Network300.node270 	query_homogenity_rate 	33.333333333333
scalar Network300.node270 	qrecord_time 	48052.759113558
scalar Network300.node270 	discovery_resolution_rate 	100
scalar Network300.node20 	rate_of_requesters 	1
scalar Network300.node20 	number_of_resources 	16500
scalar Network300.node20 	time_period 	10
scalar Network300.node20 	number_of_messages 	96
scalar Network300.node20 	discovery_latency 	1188
scalar Network300.node20 	number_of_desired_resources 	20
scalar Network300.node20 	query_homogenity_rate 	33.333333333333
scalar Network300.node20 	qrecord_time 	48188.088214967
scalar Network300.node20 	discovery_resolution_rate 	100
scalar Network300.node190 	rate_of_requesters 	1
scalar Network300.node190 	number_of_resources 	16500
scalar Network300.node190 	time_period 	10
scalar Network300.node190 	number_of_messages 	81
scalar Network300.node190 	discovery_latency 	1404
scalar Network300.node190 	number_of_desired_resources 	20
scalar Network300.node190 	query_homogenity_rate 	33.333333333333
scalar Network300.node190 	qrecord_time 	49970.87266273
scalar Network300.node190 	discovery_resolution_rate 	100
scalar Network300.node120 	rate_of_requesters 	1
scalar Network300.node120 	number_of_resources 	16500
scalar Network300.node120 	time_period 	10
scalar Network300.node120 	number_of_messages 	125
scalar Network300.node120 	discovery_latency 	1308
scalar Network300.node120 	number_of_desired_resources 	20
scalar Network300.node120 	query_homogenity_rate 	33.333333333333
scalar Network300.node120 	qrecord_time 	50010.410668702
scalar Network300.node120 	discovery_resolution_rate 	100
scalar Network300.node220 	rate_of_requesters 	1
scalar Network300.node220 	number_of_resources 	16500
scalar Network300.node220 	time_period 	10
scalar Network300.node220 	number_of_messages 	75
scalar Network300.node220 	discovery_latency 	1056
scalar Network300.node220 	number_of_desired_resources 	20
scalar Network300.node220 	query_homogenity_rate 	33.333333333333
scalar Network300.node220 	qrecord_time 	50571.661419758
scalar Network300.node220 	discovery_resolution_rate 	100
scalar Network300.node270 	rate_of_requesters 	1
scalar Network300.node270 	number_of_resources 	16500
scalar Network300.node270 	time_period 	9
scalar Network300.node270 	number_of_messages 	97
scalar Network300.node270 	discovery_latency 	1272
scalar Network300.node270 	number_of_desired_resources 	20
scalar Network300.node270 	query_homogenity_rate 	33.333333333333
scalar Network300.node270 	qrecord_time 	50934.386934919
scalar Network300.node270 	discovery_resolution_rate 	100
scalar Network300.node270 	rate_of_requesters 	1
scalar Network300.node270 	number_of_resources 	16500
scalar Network300.node270 	time_period 	10
scalar Network300.node270 	number_of_messages 	96
scalar Network300.node270 	discovery_latency 	996
scalar Network300.node270 	number_of_desired_resources 	20
scalar Network300.node270 	query_homogenity_rate 	33.333333333333
scalar Network300.node270 	qrecord_time 	50975.43717424
scalar Network300.node270 	discovery_resolution_rate 	100
scalar Network300.node260 	rate_of_requesters 	1
scalar Network300.node260 	number_of_resources 	16500
scalar Network300.node260 	time_period 	6
scalar Network300.node260 	number_of_messages 	69
scalar Network300.node260 	discovery_latency 	1200
scalar Network300.node260 	number_of_desired_resources 	20
scalar Network300.node260 	query_homogenity_rate 	33.333333333333
scalar Network300.node260 	qrecord_time 	52685.131195927
scalar Network300.node260 	discovery_resolution_rate 	100
scalar Network300.node250 	rate_of_requesters 	1
scalar Network300.node250 	number_of_resources 	16500
scalar Network300.node250 	time_period 	8
scalar Network300.node250 	number_of_messages 	53
scalar Network300.node250 	discovery_latency 	648
scalar Network300.node250 	number_of_desired_resources 	20
scalar Network300.node250 	query_homogenity_rate 	33.333333333333
scalar Network300.node250 	qrecord_time 	53057.515233616
scalar Network300.node250 	discovery_resolution_rate 	100
scalar Network300.node260 	rate_of_requesters 	1
scalar Network300.node260 	number_of_resources 	16500
scalar Network300.node260 	time_period 	7
scalar Network300.node260 	number_of_messages 	77
scalar Network300.node260 	discovery_latency 	1344
scalar Network300.node260 	number_of_desired_resources 	20
scalar Network300.node260 	query_homogenity_rate 	33.333333333333
scalar Network300.node260 	qrecord_time 	60322.489226947
scalar Network300.node260 	discovery_resolution_rate 	100
scalar Network300.node260 	rate_of_requesters 	1
scalar Network300.node260 	number_of_resources 	16500
scalar Network300.node260 	time_period 	8
scalar Network300.node260 	number_of_messages 	19
scalar Network300.node260 	discovery_latency 	168
scalar Network300.node260 	number_of_desired_resources 	20
scalar Network300.node260 	query_homogenity_rate 	33.333333333333
scalar Network300.node260 	qrecord_time 	61131.871709747
scalar Network300.node260 	discovery_resolution_rate 	100
scalar Network300.node250 	rate_of_requesters 	1
scalar Network300.node250 	number_of_resources 	16500
scalar Network300.node250 	time_period 	9
scalar Network300.node250 	number_of_messages 	69
scalar Network300.node250 	discovery_latency 	804
scalar Network300.node250 	number_of_desired_resources 	20
scalar Network300.node250 	query_homogenity_rate 	33.333333333333
scalar Network300.node250 	qrecord_time 	71201.354424128
scalar Network300.node250 	discovery_resolution_rate 	100
scalar Network300.node250 	rate_of_requesters 	1
scalar Network300.node250 	number_of_resources 	16500
scalar Network300.node250 	time_period 	10
scalar Network300.node250 	number_of_messages 	59
scalar Network300.node250 	discovery_latency 	516.00000000001
scalar Network300.node250 	number_of_desired_resources 	20
scalar Network300.node250 	query_homogenity_rate 	33.333333333333
scalar Network300.node250 	qrecord_time 	73184.272307536
scalar Network300.node250 	discovery_resolution_rate 	100
scalar Network300.node260 	rate_of_requesters 	1
scalar Network300.node260 	number_of_resources 	16500
scalar Network300.node260 	time_period 	9
scalar Network300.node260 	number_of_messages 	40
scalar Network300.node260 	discovery_latency 	408
scalar Network300.node260 	number_of_desired_resources 	20
scalar Network300.node260 	query_homogenity_rate 	33.333333333333
scalar Network300.node260 	qrecord_time 	74639.232266957
scalar Network300.node260 	discovery_resolution_rate 	100
scalar Network300.node260 	rate_of_requesters 	1
scalar Network300.node260 	number_of_resources 	16500
scalar Network300.node260 	time_period 	10
scalar Network300.node260 	number_of_messages 	27
scalar Network300.node260 	discovery_latency 	239.99999999999
scalar Network300.node260 	number_of_desired_resources 	20
scalar Network300.node260 	query_homogenity_rate 	33.333333333333
scalar Network300.node260 	qrecord_time 	75861.968124432
scalar Network300.node260 	discovery_resolution_rate 	100
