version 2
run net400-0-20150624-21:37:33-684
attr as 1
attr configname net400
attr datetime 20150624-21:37:33
attr dnor 20
attr experiment net400
attr inifile omnetpp.ini
attr iterationvars "$rhdrq=3, $dnor=20, $as=1"
attr iterationvars2 "$rhdrq=3, $dnor=20, $as=1, $repetition=0"
attr measurement "$rhdrq=3, $dnor=20, $as=1"
attr network Network400
attr processid 684
attr repetition 0
attr replication #0
attr resultdir results
attr rhdrq 3
attr runnumber 0
attr seedset 0

scalar . 	as 	1
scalar . 	dnor 	20
scalar . 	rhdrq 	3
scalar Network400.node0 	rate_of_requesters 	1
scalar Network400.node0 	number_of_resources 	22000
scalar Network400.node0 	time_period 	1
scalar Network400.node0 	number_of_messages 	27
scalar Network400.node0 	discovery_latency 	264
scalar Network400.node0 	number_of_desired_resources 	20
scalar Network400.node0 	query_homogenity_rate 	33.333333333333
scalar Network400.node0 	qrecord_time 	5008
scalar Network400.node0 	discovery_resolution_rate 	100
scalar Network400.node240 	rate_of_requesters 	1
scalar Network400.node240 	number_of_resources 	22000
scalar Network400.node240 	time_period 	1
scalar Network400.node240 	number_of_messages 	50
scalar Network400.node240 	discovery_latency 	480
scalar Network400.node240 	number_of_desired_resources 	20
scalar Network400.node240 	query_homogenity_rate 	33.333333333333
scalar Network400.node240 	qrecord_time 	5170
scalar Network400.node240 	discovery_resolution_rate 	100
scalar Network400.node260 	rate_of_requesters 	1
scalar Network400.node260 	number_of_resources 	22000
scalar Network400.node260 	time_period 	1
scalar Network400.node260 	number_of_messages 	50
scalar Network400.node260 	discovery_latency 	480
scalar Network400.node260 	number_of_desired_resources 	20
scalar Network400.node260 	query_homogenity_rate 	33.333333333333
scalar Network400.node260 	qrecord_time 	5170
scalar Network400.node260 	discovery_resolution_rate 	100
scalar Network400.node350 	rate_of_requesters 	1
scalar Network400.node350 	number_of_resources 	22000
scalar Network400.node350 	time_period 	1
scalar Network400.node350 	number_of_messages 	38
scalar Network400.node350 	discovery_latency 	492
scalar Network400.node350 	number_of_desired_resources 	20
scalar Network400.node350 	query_homogenity_rate 	33.333333333333
scalar Network400.node350 	qrecord_time 	5176
scalar Network400.node350 	discovery_resolution_rate 	100
scalar Network400.node300 	rate_of_requesters 	1
scalar Network400.node300 	number_of_resources 	22000
scalar Network400.node300 	time_period 	1
scalar Network400.node300 	number_of_messages 	36
scalar Network400.node300 	discovery_latency 	486
scalar Network400.node300 	number_of_desired_resources 	20
scalar Network400.node300 	query_homogenity_rate 	33.333333333333
scalar Network400.node300 	qrecord_time 	5236
scalar Network400.node300 	discovery_resolution_rate 	100
scalar Network400.node320 	rate_of_requesters 	1
scalar Network400.node320 	number_of_resources 	22000
scalar Network400.node320 	time_period 	1
scalar Network400.node320 	number_of_messages 	58
scalar Network400.node320 	discovery_latency 	456
scalar Network400.node320 	number_of_desired_resources 	20
scalar Network400.node320 	query_homogenity_rate 	33.333333333333
scalar Network400.node320 	qrecord_time 	5266
scalar Network400.node320 	discovery_resolution_rate 	100
scalar Network400.node380 	rate_of_requesters 	1
scalar Network400.node380 	number_of_resources 	22000
scalar Network400.node380 	time_period 	1
scalar Network400.node380 	number_of_messages 	64
scalar Network400.node380 	discovery_latency 	564
scalar Network400.node380 	number_of_desired_resources 	20
scalar Network400.node380 	query_homogenity_rate 	33.333333333333
scalar Network400.node380 	qrecord_time 	5278
scalar Network400.node380 	discovery_resolution_rate 	100
scalar Network400.node80 	rate_of_requesters 	1
scalar Network400.node80 	number_of_resources 	22000
scalar Network400.node80 	time_period 	1
scalar Network400.node80 	number_of_messages 	45
scalar Network400.node80 	discovery_latency 	552
scalar Network400.node80 	number_of_desired_resources 	20
scalar Network400.node80 	query_homogenity_rate 	33.333333333333
scalar Network400.node80 	qrecord_time 	5302
scalar Network400.node80 	discovery_resolution_rate 	100
scalar Network400.node340 	rate_of_requesters 	1
scalar Network400.node340 	number_of_resources 	22000
scalar Network400.node340 	time_period 	1
scalar Network400.node340 	number_of_messages 	47
scalar Network400.node340 	discovery_latency 	630
scalar Network400.node340 	number_of_desired_resources 	20
scalar Network400.node340 	query_homogenity_rate 	33.333333333333
scalar Network400.node340 	qrecord_time 	5338
scalar Network400.node340 	discovery_resolution_rate 	100
scalar Network400.node120 	rate_of_requesters 	1
scalar Network400.node120 	number_of_resources 	22000
scalar Network400.node120 	time_period 	1
scalar Network400.node120 	number_of_messages 	29
scalar Network400.node120 	discovery_latency 	2484
scalar Network400.node120 	number_of_desired_resources 	20
scalar Network400.node120 	query_homogenity_rate 	33.333333333333
scalar Network400.node120 	qrecord_time 	7180
scalar Network400.node120 	discovery_resolution_rate 	66.666666666667
scalar Network400.node20 	rate_of_requesters 	1
scalar Network400.node20 	number_of_resources 	22000
scalar Network400.node20 	time_period 	1
scalar Network400.node20 	number_of_messages 	159
scalar Network400.node20 	discovery_latency 	2448
scalar Network400.node20 	number_of_desired_resources 	20
scalar Network400.node20 	query_homogenity_rate 	33.333333333333
scalar Network400.node20 	qrecord_time 	7186
scalar Network400.node20 	discovery_resolution_rate 	83.333333333333
scalar Network400.node180 	rate_of_requesters 	1
scalar Network400.node180 	number_of_resources 	22000
scalar Network400.node180 	time_period 	1
scalar Network400.node180 	number_of_messages 	20
scalar Network400.node180 	discovery_latency 	2448
scalar Network400.node180 	number_of_desired_resources 	20
scalar Network400.node180 	query_homogenity_rate 	33.333333333333
scalar Network400.node180 	qrecord_time 	7198
scalar Network400.node180 	discovery_resolution_rate 	66.666666666667
scalar Network400.node160 	rate_of_requesters 	1
scalar Network400.node160 	number_of_resources 	22000
scalar Network400.node160 	time_period 	1
scalar Network400.node160 	number_of_messages 	12
scalar Network400.node160 	discovery_latency 	2448
scalar Network400.node160 	number_of_desired_resources 	20
scalar Network400.node160 	query_homogenity_rate 	33.333333333333
scalar Network400.node160 	qrecord_time 	7204
scalar Network400.node160 	discovery_resolution_rate 	66.666666666667
scalar Network400.node230 	rate_of_requesters 	1
scalar Network400.node230 	number_of_resources 	22000
scalar Network400.node230 	time_period 	1
scalar Network400.node230 	number_of_messages 	37
scalar Network400.node230 	discovery_latency 	2448
scalar Network400.node230 	number_of_desired_resources 	20
scalar Network400.node230 	query_homogenity_rate 	33.333333333333
scalar Network400.node230 	qrecord_time 	7258
scalar Network400.node230 	discovery_resolution_rate 	66.666666666667
scalar Network400.node310 	rate_of_requesters 	1
scalar Network400.node310 	number_of_resources 	22000
scalar Network400.node310 	time_period 	1
scalar Network400.node310 	number_of_messages 	56
scalar Network400.node310 	discovery_latency 	2508
scalar Network400.node310 	number_of_desired_resources 	20
scalar Network400.node310 	query_homogenity_rate 	33.333333333333
scalar Network400.node310 	qrecord_time 	7264
scalar Network400.node310 	discovery_resolution_rate 	66.666666666667
scalar Network400.node10 	rate_of_requesters 	1
scalar Network400.node10 	number_of_resources 	22000
scalar Network400.node10 	time_period 	1
scalar Network400.node10 	number_of_messages 	128
scalar Network400.node10 	discovery_latency 	2586
scalar Network400.node10 	number_of_desired_resources 	20
scalar Network400.node10 	query_homogenity_rate 	33.333333333333
scalar Network400.node10 	qrecord_time 	7270
scalar Network400.node10 	discovery_resolution_rate 	50
scalar Network400.node30 	rate_of_requesters 	1
scalar Network400.node30 	number_of_resources 	22000
scalar Network400.node30 	time_period 	1
scalar Network400.node30 	number_of_messages 	139
scalar Network400.node30 	discovery_latency 	2532
scalar Network400.node30 	number_of_desired_resources 	20
scalar Network400.node30 	query_homogenity_rate 	33.333333333333
scalar Network400.node30 	qrecord_time 	7282
scalar Network400.node30 	discovery_resolution_rate 	83.333333333333
scalar Network400.node150 	rate_of_requesters 	1
scalar Network400.node150 	number_of_resources 	22000
scalar Network400.node150 	time_period 	1
scalar Network400.node150 	number_of_messages 	4
scalar Network400.node150 	discovery_latency 	2574
scalar Network400.node150 	number_of_desired_resources 	20
scalar Network400.node150 	query_homogenity_rate 	33.333333333333
scalar Network400.node150 	qrecord_time 	7288
scalar Network400.node150 	discovery_resolution_rate 	33.333333333333
scalar Network400.node190 	rate_of_requesters 	1
scalar Network400.node190 	number_of_resources 	22000
scalar Network400.node190 	time_period 	1
scalar Network400.node190 	number_of_messages 	10
scalar Network400.node190 	discovery_latency 	2520
scalar Network400.node190 	number_of_desired_resources 	20
scalar Network400.node190 	query_homogenity_rate 	33.333333333333
scalar Network400.node190 	qrecord_time 	7294
scalar Network400.node190 	discovery_resolution_rate 	66.666666666667
scalar Network400.node200 	rate_of_requesters 	1
scalar Network400.node200 	number_of_resources 	22000
scalar Network400.node200 	time_period 	1
scalar Network400.node200 	number_of_messages 	29
scalar Network400.node200 	discovery_latency 	2610
scalar Network400.node200 	number_of_desired_resources 	20
scalar Network400.node200 	query_homogenity_rate 	33.333333333333
scalar Network400.node200 	qrecord_time 	7342
scalar Network400.node200 	discovery_resolution_rate 	66.666666666667
scalar Network400.node170 	rate_of_requesters 	1
scalar Network400.node170 	number_of_resources 	22000
scalar Network400.node170 	time_period 	1
scalar Network400.node170 	number_of_messages 	161
scalar Network400.node170 	discovery_latency 	2652
scalar Network400.node170 	number_of_desired_resources 	20
scalar Network400.node170 	query_homogenity_rate 	33.333333333333
scalar Network400.node170 	qrecord_time 	7372
scalar Network400.node170 	discovery_resolution_rate 	100
scalar Network400.node60 	rate_of_requesters 	1
scalar Network400.node60 	number_of_resources 	22000
scalar Network400.node60 	time_period 	1
scalar Network400.node60 	number_of_messages 	14
scalar Network400.node60 	discovery_latency 	2718
scalar Network400.node60 	number_of_desired_resources 	20
scalar Network400.node60 	query_homogenity_rate 	33.333333333333
scalar Network400.node60 	qrecord_time 	7450
scalar Network400.node60 	discovery_resolution_rate 	66.666666666667
scalar Network400.node330 	rate_of_requesters 	1
scalar Network400.node330 	number_of_resources 	22000
scalar Network400.node330 	time_period 	1
scalar Network400.node330 	number_of_messages 	20
scalar Network400.node330 	discovery_latency 	2718
scalar Network400.node330 	number_of_desired_resources 	20
scalar Network400.node330 	query_homogenity_rate 	33.333333333333
scalar Network400.node330 	qrecord_time 	7450
scalar Network400.node330 	discovery_resolution_rate 	66.666666666667
scalar Network400.node390 	rate_of_requesters 	1
scalar Network400.node390 	number_of_resources 	22000
scalar Network400.node390 	time_period 	1
scalar Network400.node390 	number_of_messages 	31
scalar Network400.node390 	discovery_latency 	2682
scalar Network400.node390 	number_of_desired_resources 	20
scalar Network400.node390 	query_homogenity_rate 	33.333333333333
scalar Network400.node390 	qrecord_time 	7516
scalar Network400.node390 	discovery_resolution_rate 	66.666666666667
scalar Network400.node100 	rate_of_requesters 	1
scalar Network400.node100 	number_of_resources 	22000
scalar Network400.node100 	time_period 	1
scalar Network400.node100 	number_of_messages 	129
scalar Network400.node100 	discovery_latency 	2778
scalar Network400.node100 	number_of_desired_resources 	20
scalar Network400.node100 	query_homogenity_rate 	33.333333333333
scalar Network400.node100 	qrecord_time 	7546
scalar Network400.node100 	discovery_resolution_rate 	66.666666666667
scalar Network400.node40 	rate_of_requesters 	1
scalar Network400.node40 	number_of_resources 	22000
scalar Network400.node40 	time_period 	1
scalar Network400.node40 	number_of_messages 	187
scalar Network400.node40 	discovery_latency 	2916
scalar Network400.node40 	number_of_desired_resources 	20
scalar Network400.node40 	query_homogenity_rate 	33.333333333333
scalar Network400.node40 	qrecord_time 	7624
scalar Network400.node40 	discovery_resolution_rate 	83.333333333333
scalar Network400.node360 	rate_of_requesters 	1
scalar Network400.node360 	number_of_resources 	22000
scalar Network400.node360 	time_period 	1
scalar Network400.node360 	number_of_messages 	42
scalar Network400.node360 	discovery_latency 	2940
scalar Network400.node360 	number_of_desired_resources 	20
scalar Network400.node360 	query_homogenity_rate 	33.333333333333
scalar Network400.node360 	qrecord_time 	7624
scalar Network400.node360 	discovery_resolution_rate 	66.666666666667
scalar Network400.node290 	rate_of_requesters 	1
scalar Network400.node290 	number_of_resources 	22000
scalar Network400.node290 	time_period 	1
scalar Network400.node290 	number_of_messages 	16
scalar Network400.node290 	discovery_latency 	2916
scalar Network400.node290 	number_of_desired_resources 	20
scalar Network400.node290 	query_homogenity_rate 	33.333333333333
scalar Network400.node290 	qrecord_time 	7630
scalar Network400.node290 	discovery_resolution_rate 	66.666666666667
scalar Network400.node70 	rate_of_requesters 	1
scalar Network400.node70 	number_of_resources 	22000
scalar Network400.node70 	time_period 	1
scalar Network400.node70 	number_of_messages 	284
scalar Network400.node70 	discovery_latency 	2880
scalar Network400.node70 	number_of_desired_resources 	20
scalar Network400.node70 	query_homogenity_rate 	33.333333333333
scalar Network400.node70 	qrecord_time 	7630
scalar Network400.node70 	discovery_resolution_rate 	66.666666666667
scalar Network400.node210 	rate_of_requesters 	1
scalar Network400.node210 	number_of_resources 	22000
scalar Network400.node210 	time_period 	1
scalar Network400.node210 	number_of_messages 	24
scalar Network400.node210 	discovery_latency 	2856
scalar Network400.node210 	number_of_desired_resources 	20
scalar Network400.node210 	query_homogenity_rate 	33.333333333333
scalar Network400.node210 	qrecord_time 	7636
scalar Network400.node210 	discovery_resolution_rate 	33.333333333333
scalar Network400.node250 	rate_of_requesters 	1
scalar Network400.node250 	number_of_resources 	22000
scalar Network400.node250 	time_period 	1
scalar Network400.node250 	number_of_messages 	6
scalar Network400.node250 	discovery_latency 	2904
scalar Network400.node250 	number_of_desired_resources 	20
scalar Network400.node250 	query_homogenity_rate 	33.333333333333
scalar Network400.node250 	qrecord_time 	7648
scalar Network400.node250 	discovery_resolution_rate 	33.333333333333
scalar Network400.node130 	rate_of_requesters 	1
scalar Network400.node130 	number_of_resources 	22000
scalar Network400.node130 	time_period 	1
scalar Network400.node130 	number_of_messages 	23
scalar Network400.node130 	discovery_latency 	2928
scalar Network400.node130 	number_of_desired_resources 	20
scalar Network400.node130 	query_homogenity_rate 	33.333333333333
scalar Network400.node130 	qrecord_time 	7666
scalar Network400.node130 	discovery_resolution_rate 	33.333333333333
scalar Network400.node140 	rate_of_requesters 	1
scalar Network400.node140 	number_of_resources 	22000
scalar Network400.node140 	time_period 	1
scalar Network400.node140 	number_of_messages 	29
scalar Network400.node140 	discovery_latency 	3024
scalar Network400.node140 	number_of_desired_resources 	20
scalar Network400.node140 	query_homogenity_rate 	33.333333333333
scalar Network400.node140 	qrecord_time 	7672
scalar Network400.node140 	discovery_resolution_rate 	33.333333333333
scalar Network400.node280 	rate_of_requesters 	1
scalar Network400.node280 	number_of_resources 	22000
scalar Network400.node280 	time_period 	1
scalar Network400.node280 	number_of_messages 	33
scalar Network400.node280 	discovery_latency 	3012
scalar Network400.node280 	number_of_desired_resources 	20
scalar Network400.node280 	query_homogenity_rate 	33.333333333333
scalar Network400.node280 	qrecord_time 	7696
scalar Network400.node280 	discovery_resolution_rate 	33.333333333333
scalar Network400.node220 	rate_of_requesters 	1
scalar Network400.node220 	number_of_resources 	22000
scalar Network400.node220 	time_period 	1
scalar Network400.node220 	number_of_messages 	26
scalar Network400.node220 	discovery_latency 	2964
scalar Network400.node220 	number_of_desired_resources 	20
scalar Network400.node220 	query_homogenity_rate 	33.333333333333
scalar Network400.node220 	qrecord_time 	7702
scalar Network400.node220 	discovery_resolution_rate 	33.333333333333
scalar Network400.node110 	rate_of_requesters 	1
scalar Network400.node110 	number_of_resources 	22000
scalar Network400.node110 	time_period 	1
scalar Network400.node110 	number_of_messages 	11
scalar Network400.node110 	discovery_latency 	2916
scalar Network400.node110 	number_of_desired_resources 	20
scalar Network400.node110 	query_homogenity_rate 	33.333333333333
scalar Network400.node110 	qrecord_time 	7708
scalar Network400.node110 	discovery_resolution_rate 	33.333333333333
scalar Network400.node90 	rate_of_requesters 	1
scalar Network400.node90 	number_of_resources 	22000
scalar Network400.node90 	time_period 	1
scalar Network400.node90 	number_of_messages 	16
scalar Network400.node90 	discovery_latency 	3024
scalar Network400.node90 	number_of_desired_resources 	20
scalar Network400.node90 	query_homogenity_rate 	33.333333333333
scalar Network400.node90 	qrecord_time 	7714
scalar Network400.node90 	discovery_resolution_rate 	66.666666666667
scalar Network400.node50 	rate_of_requesters 	1
scalar Network400.node50 	number_of_resources 	22000
scalar Network400.node50 	time_period 	1
scalar Network400.node50 	number_of_messages 	19
scalar Network400.node50 	discovery_latency 	2952
scalar Network400.node50 	number_of_desired_resources 	20
scalar Network400.node50 	query_homogenity_rate 	33.333333333333
scalar Network400.node50 	qrecord_time 	7750
scalar Network400.node50 	discovery_resolution_rate 	66.666666666667
scalar Network400.node360 	rate_of_requesters 	1
scalar Network400.node360 	number_of_resources 	22000
scalar Network400.node360 	time_period 	2
scalar Network400.node360 	number_of_messages 	209
scalar Network400.node360 	discovery_latency 	2556
scalar Network400.node360 	number_of_desired_resources 	20
scalar Network400.node360 	query_homogenity_rate 	33.333333333333
scalar Network400.node360 	qrecord_time 	7812.21898382
scalar Network400.node360 	discovery_resolution_rate 	66.666666666667
scalar Network400.node150 	rate_of_requesters 	1
scalar Network400.node150 	number_of_resources 	22000
scalar Network400.node150 	time_period 	2
scalar Network400.node150 	number_of_messages 	2
scalar Network400.node150 	discovery_latency 	2916
scalar Network400.node150 	number_of_desired_resources 	20
scalar Network400.node150 	query_homogenity_rate 	33.333333333333
scalar Network400.node150 	qrecord_time 	7816.355757714
scalar Network400.node150 	discovery_resolution_rate 	0
scalar Network400.node150 	rate_of_requesters 	1
scalar Network400.node150 	number_of_resources 	22000
scalar Network400.node150 	time_period 	3
scalar Network400.node150 	number_of_messages 	2
scalar Network400.node150 	discovery_latency 	2952
scalar Network400.node150 	number_of_desired_resources 	20
scalar Network400.node150 	query_homogenity_rate 	33.333333333333
scalar Network400.node150 	qrecord_time 	7853.457304492
scalar Network400.node150 	discovery_resolution_rate 	0
scalar Network400.node370 	rate_of_requesters 	1
scalar Network400.node370 	number_of_resources 	22000
scalar Network400.node370 	time_period 	1
scalar Network400.node370 	number_of_messages 	6
scalar Network400.node370 	discovery_latency 	3120
scalar Network400.node370 	number_of_desired_resources 	20
scalar Network400.node370 	query_homogenity_rate 	33.333333333333
scalar Network400.node370 	qrecord_time 	7858
scalar Network400.node370 	discovery_resolution_rate 	33.333333333333
scalar Network400.node180 	rate_of_requesters 	1
scalar Network400.node180 	number_of_resources 	22000
scalar Network400.node180 	time_period 	2
scalar Network400.node180 	number_of_messages 	9
scalar Network400.node180 	discovery_latency 	2988
scalar Network400.node180 	number_of_desired_resources 	20
scalar Network400.node180 	query_homogenity_rate 	33.333333333333
scalar Network400.node180 	qrecord_time 	7867.425066821
scalar Network400.node180 	discovery_resolution_rate 	33.333333333333
scalar Network400.node290 	rate_of_requesters 	1
scalar Network400.node290 	number_of_resources 	22000
scalar Network400.node290 	time_period 	2
scalar Network400.node290 	number_of_messages 	5
scalar Network400.node290 	discovery_latency 	2916
scalar Network400.node290 	number_of_desired_resources 	20
scalar Network400.node290 	query_homogenity_rate 	33.333333333333
scalar Network400.node290 	qrecord_time 	7878.618254568
scalar Network400.node290 	discovery_resolution_rate 	33.333333333333
scalar Network400.node270 	rate_of_requesters 	1
scalar Network400.node270 	number_of_resources 	22000
scalar Network400.node270 	time_period 	1
scalar Network400.node270 	number_of_messages 	2
scalar Network400.node270 	discovery_latency 	3156
scalar Network400.node270 	number_of_desired_resources 	20
scalar Network400.node270 	query_homogenity_rate 	33.333333333333
scalar Network400.node270 	qrecord_time 	7912
scalar Network400.node270 	discovery_resolution_rate 	0
scalar Network400.node120 	rate_of_requesters 	1
scalar Network400.node120 	number_of_resources 	22000
scalar Network400.node120 	time_period 	2
scalar Network400.node120 	number_of_messages 	9
scalar Network400.node120 	discovery_latency 	2952
scalar Network400.node120 	number_of_desired_resources 	20
scalar Network400.node120 	query_homogenity_rate 	33.333333333333
scalar Network400.node120 	qrecord_time 	7942.371459256
scalar Network400.node120 	discovery_resolution_rate 	33.333333333333
scalar Network400.node10 	rate_of_requesters 	1
scalar Network400.node10 	number_of_resources 	22000
scalar Network400.node10 	time_period 	2
scalar Network400.node10 	number_of_messages 	2
scalar Network400.node10 	discovery_latency 	2988
scalar Network400.node10 	number_of_desired_resources 	20
scalar Network400.node10 	query_homogenity_rate 	33.333333333333
scalar Network400.node10 	qrecord_time 	8210.343358015
scalar Network400.node10 	discovery_resolution_rate 	0
scalar Network400.node390 	rate_of_requesters 	1
scalar Network400.node390 	number_of_resources 	22000
scalar Network400.node390 	time_period 	2
scalar Network400.node390 	number_of_messages 	2
scalar Network400.node390 	discovery_latency 	2868
scalar Network400.node390 	number_of_desired_resources 	20
scalar Network400.node390 	query_homogenity_rate 	33.333333333333
scalar Network400.node390 	qrecord_time 	8216.474400917
scalar Network400.node390 	discovery_resolution_rate 	0
scalar Network400.node380 	rate_of_requesters 	1
scalar Network400.node380 	number_of_resources 	22000
scalar Network400.node380 	time_period 	2
scalar Network400.node380 	number_of_messages 	2
scalar Network400.node380 	discovery_latency 	2928
scalar Network400.node380 	number_of_desired_resources 	20
scalar Network400.node380 	query_homogenity_rate 	33.333333333333
scalar Network400.node380 	qrecord_time 	8250.780624031
scalar Network400.node380 	discovery_resolution_rate 	0
scalar Network400.node70 	rate_of_requesters 	1
scalar Network400.node70 	number_of_resources 	22000
scalar Network400.node70 	time_period 	2
scalar Network400.node70 	number_of_messages 	2
scalar Network400.node70 	discovery_latency 	3096
scalar Network400.node70 	number_of_desired_resources 	20
scalar Network400.node70 	query_homogenity_rate 	33.333333333333
scalar Network400.node70 	qrecord_time 	8303.374966316
scalar Network400.node70 	discovery_resolution_rate 	0
scalar Network400.node40 	rate_of_requesters 	1
scalar Network400.node40 	number_of_resources 	22000
scalar Network400.node40 	time_period 	2
scalar Network400.node40 	number_of_messages 	2
scalar Network400.node40 	discovery_latency 	2796
scalar Network400.node40 	number_of_desired_resources 	20
scalar Network400.node40 	query_homogenity_rate 	33.333333333333
scalar Network400.node40 	qrecord_time 	8384.183094396
scalar Network400.node40 	discovery_resolution_rate 	0
scalar Network400.node220 	rate_of_requesters 	1
scalar Network400.node220 	number_of_resources 	22000
scalar Network400.node220 	time_period 	2
scalar Network400.node220 	number_of_messages 	2
scalar Network400.node220 	discovery_latency 	2892
scalar Network400.node220 	number_of_desired_resources 	20
scalar Network400.node220 	query_homogenity_rate 	33.333333333333
scalar Network400.node220 	qrecord_time 	8663.851681466
scalar Network400.node220 	discovery_resolution_rate 	0
scalar Network400.node260 	rate_of_requesters 	1
scalar Network400.node260 	number_of_resources 	22000
scalar Network400.node260 	time_period 	2
scalar Network400.node260 	number_of_messages 	2
scalar Network400.node260 	discovery_latency 	2916
scalar Network400.node260 	number_of_desired_resources 	20
scalar Network400.node260 	query_homogenity_rate 	33.333333333333
scalar Network400.node260 	qrecord_time 	8675.823393443
scalar Network400.node260 	discovery_resolution_rate 	0
scalar Network400.node250 	rate_of_requesters 	1
scalar Network400.node250 	number_of_resources 	22000
scalar Network400.node250 	time_period 	2
scalar Network400.node250 	number_of_messages 	49
scalar Network400.node250 	discovery_latency 	2928
scalar Network400.node250 	number_of_desired_resources 	20
scalar Network400.node250 	query_homogenity_rate 	33.333333333333
scalar Network400.node250 	qrecord_time 	8760.375354525
scalar Network400.node250 	discovery_resolution_rate 	33.333333333333
scalar Network400.node20 	rate_of_requesters 	1
scalar Network400.node20 	number_of_resources 	22000
scalar Network400.node20 	time_period 	2
scalar Network400.node20 	number_of_messages 	2
scalar Network400.node20 	discovery_latency 	3048
scalar Network400.node20 	number_of_desired_resources 	20
scalar Network400.node20 	query_homogenity_rate 	33.333333333333
scalar Network400.node20 	qrecord_time 	8792.89171328
scalar Network400.node20 	discovery_resolution_rate 	0
scalar Network400.node140 	rate_of_requesters 	1
scalar Network400.node140 	number_of_resources 	22000
scalar Network400.node140 	time_period 	2
scalar Network400.node140 	number_of_messages 	29
scalar Network400.node140 	discovery_latency 	2940
scalar Network400.node140 	number_of_desired_resources 	20
scalar Network400.node140 	query_homogenity_rate 	33.333333333333
scalar Network400.node140 	qrecord_time 	9099.054513258
scalar Network400.node140 	discovery_resolution_rate 	33.333333333333
scalar Network400.node230 	rate_of_requesters 	1
scalar Network400.node230 	number_of_resources 	22000
scalar Network400.node230 	time_period 	2
scalar Network400.node230 	number_of_messages 	2
scalar Network400.node230 	discovery_latency 	2940
scalar Network400.node230 	number_of_desired_resources 	20
scalar Network400.node230 	query_homogenity_rate 	33.333333333333
scalar Network400.node230 	qrecord_time 	9362.692865394
scalar Network400.node230 	discovery_resolution_rate 	0
scalar Network400.node280 	rate_of_requesters 	1
scalar Network400.node280 	number_of_resources 	22000
scalar Network400.node280 	time_period 	2
scalar Network400.node280 	number_of_messages 	45
scalar Network400.node280 	discovery_latency 	2856
scalar Network400.node280 	number_of_desired_resources 	20
scalar Network400.node280 	query_homogenity_rate 	33.333333333333
scalar Network400.node280 	qrecord_time 	9411.458970751
scalar Network400.node280 	discovery_resolution_rate 	33.333333333333
scalar Network400.node190 	rate_of_requesters 	1
scalar Network400.node190 	number_of_resources 	22000
scalar Network400.node190 	time_period 	2
scalar Network400.node190 	number_of_messages 	96
scalar Network400.node190 	discovery_latency 	2964
scalar Network400.node190 	number_of_desired_resources 	20
scalar Network400.node190 	query_homogenity_rate 	33.333333333333
scalar Network400.node190 	qrecord_time 	9627.63521866
scalar Network400.node190 	discovery_resolution_rate 	33.333333333333
scalar Network400.node30 	rate_of_requesters 	1
scalar Network400.node30 	number_of_resources 	22000
scalar Network400.node30 	time_period 	2
scalar Network400.node30 	number_of_messages 	2
scalar Network400.node30 	discovery_latency 	2856
scalar Network400.node30 	number_of_desired_resources 	20
scalar Network400.node30 	query_homogenity_rate 	33.333333333333
scalar Network400.node30 	qrecord_time 	9740.873157601
scalar Network400.node30 	discovery_resolution_rate 	0
scalar Network400.node310 	rate_of_requesters 	1
scalar Network400.node310 	number_of_resources 	22000
scalar Network400.node310 	time_period 	2
scalar Network400.node310 	number_of_messages 	17
scalar Network400.node310 	discovery_latency 	2976
scalar Network400.node310 	number_of_desired_resources 	20
scalar Network400.node310 	query_homogenity_rate 	33.333333333333
scalar Network400.node310 	qrecord_time 	9840.943164284
scalar Network400.node310 	discovery_resolution_rate 	33.333333333333
scalar Network400.node270 	rate_of_requesters 	1
scalar Network400.node270 	number_of_resources 	22000
scalar Network400.node270 	time_period 	2
scalar Network400.node270 	number_of_messages 	32
scalar Network400.node270 	discovery_latency 	2718
scalar Network400.node270 	number_of_desired_resources 	20
scalar Network400.node270 	query_homogenity_rate 	33.333333333333
scalar Network400.node270 	qrecord_time 	9849.481272899
scalar Network400.node270 	discovery_resolution_rate 	33.333333333333
scalar Network400.node40 	rate_of_requesters 	1
scalar Network400.node40 	number_of_resources 	22000
scalar Network400.node40 	time_period 	3
scalar Network400.node40 	number_of_messages 	15
scalar Network400.node40 	discovery_latency 	2952
scalar Network400.node40 	number_of_desired_resources 	20
scalar Network400.node40 	query_homogenity_rate 	33.333333333333
scalar Network400.node40 	qrecord_time 	10019.330830157
scalar Network400.node40 	discovery_resolution_rate 	33.333333333333
scalar Network400.node90 	rate_of_requesters 	1
scalar Network400.node90 	number_of_resources 	22000
scalar Network400.node90 	time_period 	2
scalar Network400.node90 	number_of_messages 	92
scalar Network400.node90 	discovery_latency 	3036
scalar Network400.node90 	number_of_desired_resources 	20
scalar Network400.node90 	query_homogenity_rate 	33.333333333333
scalar Network400.node90 	qrecord_time 	10182.706274404
scalar Network400.node90 	discovery_resolution_rate 	33.333333333333
scalar Network400.node90 	rate_of_requesters 	1
scalar Network400.node90 	number_of_resources 	22000
scalar Network400.node90 	time_period 	3
scalar Network400.node90 	number_of_messages 	141
scalar Network400.node90 	discovery_latency 	2646
scalar Network400.node90 	number_of_desired_resources 	20
scalar Network400.node90 	query_homogenity_rate 	33.333333333333
scalar Network400.node90 	qrecord_time 	10224.193889151
scalar Network400.node90 	discovery_resolution_rate 	33.333333333333
scalar Network400.node250 	rate_of_requesters 	1
scalar Network400.node250 	number_of_resources 	22000
scalar Network400.node250 	time_period 	3
scalar Network400.node250 	number_of_messages 	38
scalar Network400.node250 	discovery_latency 	2610
scalar Network400.node250 	number_of_desired_resources 	20
scalar Network400.node250 	query_homogenity_rate 	33.333333333333
scalar Network400.node250 	qrecord_time 	10325.187650908
scalar Network400.node250 	discovery_resolution_rate 	33.333333333333
scalar Network400.node180 	rate_of_requesters 	1
scalar Network400.node180 	number_of_resources 	22000
scalar Network400.node180 	time_period 	3
scalar Network400.node180 	number_of_messages 	25
scalar Network400.node180 	discovery_latency 	3084
scalar Network400.node180 	number_of_desired_resources 	20
scalar Network400.node180 	query_homogenity_rate 	33.333333333333
scalar Network400.node180 	qrecord_time 	10416.933112808
scalar Network400.node180 	discovery_resolution_rate 	33.333333333333
scalar Network400.node270 	rate_of_requesters 	1
scalar Network400.node270 	number_of_resources 	22000
scalar Network400.node270 	time_period 	3
scalar Network400.node270 	number_of_messages 	2
scalar Network400.node270 	discovery_latency 	2916
scalar Network400.node270 	number_of_desired_resources 	20
scalar Network400.node270 	query_homogenity_rate 	33.333333333333
scalar Network400.node270 	qrecord_time 	10511.465853018
scalar Network400.node270 	discovery_resolution_rate 	0
scalar Network400.node20 	rate_of_requesters 	1
scalar Network400.node20 	number_of_resources 	22000
scalar Network400.node20 	time_period 	3
scalar Network400.node20 	number_of_messages 	2
scalar Network400.node20 	discovery_latency 	2964
scalar Network400.node20 	number_of_desired_resources 	20
scalar Network400.node20 	query_homogenity_rate 	33.333333333333
scalar Network400.node20 	qrecord_time 	10589.163083119
scalar Network400.node20 	discovery_resolution_rate 	0
scalar Network400.node90 	rate_of_requesters 	1
scalar Network400.node90 	number_of_resources 	22000
scalar Network400.node90 	time_period 	4
scalar Network400.node90 	number_of_messages 	57
scalar Network400.node90 	discovery_latency 	600
scalar Network400.node90 	number_of_desired_resources 	20
scalar Network400.node90 	query_homogenity_rate 	33.333333333333
scalar Network400.node90 	qrecord_time 	10634.360456343
scalar Network400.node90 	discovery_resolution_rate 	100
scalar Network400.node230 	rate_of_requesters 	1
scalar Network400.node230 	number_of_resources 	22000
scalar Network400.node230 	time_period 	3
scalar Network400.node230 	number_of_messages 	78
scalar Network400.node230 	discovery_latency 	2916
scalar Network400.node230 	number_of_desired_resources 	20
scalar Network400.node230 	query_homogenity_rate 	33.333333333333
scalar Network400.node230 	qrecord_time 	10657.087171825
scalar Network400.node230 	discovery_resolution_rate 	33.333333333333
scalar Network400.node370 	rate_of_requesters 	1
scalar Network400.node370 	number_of_resources 	22000
scalar Network400.node370 	time_period 	2
scalar Network400.node370 	number_of_messages 	47
scalar Network400.node370 	discovery_latency 	2460
scalar Network400.node370 	number_of_desired_resources 	20
scalar Network400.node370 	query_homogenity_rate 	33.333333333333
scalar Network400.node370 	qrecord_time 	10761.544815409
scalar Network400.node370 	discovery_resolution_rate 	66.666666666667
scalar Network400.node270 	rate_of_requesters 	1
scalar Network400.node270 	number_of_resources 	22000
scalar Network400.node270 	time_period 	4
scalar Network400.node270 	number_of_messages 	68
scalar Network400.node270 	discovery_latency 	2562
scalar Network400.node270 	number_of_desired_resources 	20
scalar Network400.node270 	query_homogenity_rate 	33.333333333333
scalar Network400.node270 	qrecord_time 	10863.44731621
scalar Network400.node270 	discovery_resolution_rate 	33.333333333333
scalar Network400.node140 	rate_of_requesters 	1
scalar Network400.node140 	number_of_resources 	22000
scalar Network400.node140 	time_period 	3
scalar Network400.node140 	number_of_messages 	124
scalar Network400.node140 	discovery_latency 	2634
scalar Network400.node140 	number_of_desired_resources 	20
scalar Network400.node140 	query_homogenity_rate 	33.333333333333
scalar Network400.node140 	qrecord_time 	10933.864039296
scalar Network400.node140 	discovery_resolution_rate 	66.666666666667
scalar Network400.node360 	rate_of_requesters 	1
scalar Network400.node360 	number_of_resources 	22000
scalar Network400.node360 	time_period 	3
scalar Network400.node360 	number_of_messages 	89
scalar Network400.node360 	discovery_latency 	2556
scalar Network400.node360 	number_of_desired_resources 	20
scalar Network400.node360 	query_homogenity_rate 	33.333333333333
scalar Network400.node360 	qrecord_time 	11000.053070767
scalar Network400.node360 	discovery_resolution_rate 	33.333333333333
scalar Network400.node230 	rate_of_requesters 	1
scalar Network400.node230 	number_of_resources 	22000
scalar Network400.node230 	time_period 	5
scalar Network400.node230 	number_of_messages 	115
scalar Network400.node230 	discovery_latency 	2598
scalar Network400.node230 	number_of_desired_resources 	20
scalar Network400.node230 	query_homogenity_rate 	33.333333333333
scalar Network400.node230 	qrecord_time 	11140.53994351
scalar Network400.node230 	discovery_resolution_rate 	66.666666666667
scalar Network400.node120 	rate_of_requesters 	1
scalar Network400.node120 	number_of_resources 	22000
scalar Network400.node120 	time_period 	3
scalar Network400.node120 	number_of_messages 	169
scalar Network400.node120 	discovery_latency 	2892
scalar Network400.node120 	number_of_desired_resources 	20
scalar Network400.node120 	query_homogenity_rate 	33.333333333333
scalar Network400.node120 	qrecord_time 	11310.913822391
scalar Network400.node120 	discovery_resolution_rate 	50
scalar Network400.node250 	rate_of_requesters 	1
scalar Network400.node250 	number_of_resources 	22000
scalar Network400.node250 	time_period 	4
scalar Network400.node250 	number_of_messages 	0
scalar Network400.node250 	discovery_latency 	2880
scalar Network400.node250 	number_of_desired_resources 	20
scalar Network400.node250 	query_homogenity_rate 	33.333333333333
scalar Network400.node250 	qrecord_time 	11348.847591688
scalar Network400.node250 	discovery_resolution_rate 	0
scalar Network400.node350 	rate_of_requesters 	1
scalar Network400.node350 	number_of_resources 	22000
scalar Network400.node350 	time_period 	2
scalar Network400.node350 	number_of_messages 	153
scalar Network400.node350 	discovery_latency 	2988
scalar Network400.node350 	number_of_desired_resources 	20
scalar Network400.node350 	query_homogenity_rate 	33.333333333333
scalar Network400.node350 	qrecord_time 	11422.511562942
scalar Network400.node350 	discovery_resolution_rate 	16.666666666667
scalar Network400.node330 	rate_of_requesters 	1
scalar Network400.node330 	number_of_resources 	22000
scalar Network400.node330 	time_period 	2
scalar Network400.node330 	number_of_messages 	53
scalar Network400.node330 	discovery_latency 	2448
scalar Network400.node330 	number_of_desired_resources 	20
scalar Network400.node330 	query_homogenity_rate 	33.333333333333
scalar Network400.node330 	qrecord_time 	11439.237041256
scalar Network400.node330 	discovery_resolution_rate 	66.666666666667
scalar Network400.node60 	rate_of_requesters 	1
scalar Network400.node60 	number_of_resources 	22000
scalar Network400.node60 	time_period 	2
scalar Network400.node60 	number_of_messages 	76
scalar Network400.node60 	discovery_latency 	3060
scalar Network400.node60 	number_of_desired_resources 	20
scalar Network400.node60 	query_homogenity_rate 	33.333333333333
scalar Network400.node60 	qrecord_time 	11449.112013993
scalar Network400.node60 	discovery_resolution_rate 	33.333333333333
scalar Network400.node230 	rate_of_requesters 	1
scalar Network400.node230 	number_of_resources 	22000
scalar Network400.node230 	time_period 	4
scalar Network400.node230 	number_of_messages 	251
scalar Network400.node230 	discovery_latency 	3000
scalar Network400.node230 	number_of_desired_resources 	20
scalar Network400.node230 	query_homogenity_rate 	33.333333333333
scalar Network400.node230 	qrecord_time 	11450.581173982
scalar Network400.node230 	discovery_resolution_rate 	50
scalar Network400.node60 	rate_of_requesters 	1
scalar Network400.node60 	number_of_resources 	22000
scalar Network400.node60 	time_period 	3
scalar Network400.node60 	number_of_messages 	2
scalar Network400.node60 	discovery_latency 	2988
scalar Network400.node60 	number_of_desired_resources 	20
scalar Network400.node60 	query_homogenity_rate 	33.333333333333
scalar Network400.node60 	qrecord_time 	11545.847326903
scalar Network400.node60 	discovery_resolution_rate 	0
scalar Network400.node140 	rate_of_requesters 	1
scalar Network400.node140 	number_of_resources 	22000
scalar Network400.node140 	time_period 	4
scalar Network400.node140 	number_of_messages 	143
scalar Network400.node140 	discovery_latency 	2664
scalar Network400.node140 	number_of_desired_resources 	20
scalar Network400.node140 	query_homogenity_rate 	33.333333333333
scalar Network400.node140 	qrecord_time 	11655.827436866
scalar Network400.node140 	discovery_resolution_rate 	66.666666666667
scalar Network400.node320 	rate_of_requesters 	1
scalar Network400.node320 	number_of_resources 	22000
scalar Network400.node320 	time_period 	2
scalar Network400.node320 	number_of_messages 	61
scalar Network400.node320 	discovery_latency 	2964
scalar Network400.node320 	number_of_desired_resources 	20
scalar Network400.node320 	query_homogenity_rate 	33.333333333333
scalar Network400.node320 	qrecord_time 	11686.718895793
scalar Network400.node320 	discovery_resolution_rate 	66.666666666667
scalar Network400.node0 	rate_of_requesters 	1
scalar Network400.node0 	number_of_resources 	22000
scalar Network400.node0 	time_period 	2
scalar Network400.node0 	number_of_messages 	103
scalar Network400.node0 	discovery_latency 	2574
scalar Network400.node0 	number_of_desired_resources 	20
scalar Network400.node0 	query_homogenity_rate 	33.333333333333
scalar Network400.node0 	qrecord_time 	11765.757670411
scalar Network400.node0 	discovery_resolution_rate 	33.333333333333
scalar Network400.node340 	rate_of_requesters 	1
scalar Network400.node340 	number_of_resources 	22000
scalar Network400.node340 	time_period 	2
scalar Network400.node340 	number_of_messages 	264
scalar Network400.node340 	discovery_latency 	2532
scalar Network400.node340 	number_of_desired_resources 	20
scalar Network400.node340 	query_homogenity_rate 	33.333333333333
scalar Network400.node340 	qrecord_time 	11847.36945491
scalar Network400.node340 	discovery_resolution_rate 	100
scalar Network400.node210 	rate_of_requesters 	1
scalar Network400.node210 	number_of_resources 	22000
scalar Network400.node210 	time_period 	2
scalar Network400.node210 	number_of_messages 	161
scalar Network400.node210 	discovery_latency 	2988
scalar Network400.node210 	number_of_desired_resources 	20
scalar Network400.node210 	query_homogenity_rate 	33.333333333333
scalar Network400.node210 	qrecord_time 	11903.680198963
scalar Network400.node210 	discovery_resolution_rate 	50
scalar Network400.node210 	rate_of_requesters 	1
scalar Network400.node210 	number_of_resources 	22000
scalar Network400.node210 	time_period 	3
scalar Network400.node210 	number_of_messages 	128
scalar Network400.node210 	discovery_latency 	2532
scalar Network400.node210 	number_of_desired_resources 	20
scalar Network400.node210 	query_homogenity_rate 	33.333333333333
scalar Network400.node210 	qrecord_time 	11909.979214888
scalar Network400.node210 	discovery_resolution_rate 	33.333333333333
scalar Network400.node150 	rate_of_requesters 	1
scalar Network400.node150 	number_of_resources 	22000
scalar Network400.node150 	time_period 	4
scalar Network400.node150 	number_of_messages 	223
scalar Network400.node150 	discovery_latency 	3096
scalar Network400.node150 	number_of_desired_resources 	20
scalar Network400.node150 	query_homogenity_rate 	33.333333333333
scalar Network400.node150 	qrecord_time 	11950.696664394
scalar Network400.node150 	discovery_resolution_rate 	50
scalar Network400.node10 	rate_of_requesters 	1
scalar Network400.node10 	number_of_resources 	22000
scalar Network400.node10 	time_period 	3
scalar Network400.node10 	number_of_messages 	181
scalar Network400.node10 	discovery_latency 	2136
scalar Network400.node10 	number_of_desired_resources 	20
scalar Network400.node10 	query_homogenity_rate 	33.333333333333
scalar Network400.node10 	qrecord_time 	12156.998986512
scalar Network400.node10 	discovery_resolution_rate 	100
scalar Network400.node20 	rate_of_requesters 	1
scalar Network400.node20 	number_of_resources 	22000
scalar Network400.node20 	time_period 	4
scalar Network400.node20 	number_of_messages 	86
scalar Network400.node20 	discovery_latency 	1242
scalar Network400.node20 	number_of_desired_resources 	20
scalar Network400.node20 	query_homogenity_rate 	33.333333333333
scalar Network400.node20 	qrecord_time 	12215.786624343
scalar Network400.node20 	discovery_resolution_rate 	100
scalar Network400.node200 	rate_of_requesters 	1
scalar Network400.node200 	number_of_resources 	22000
scalar Network400.node200 	time_period 	2
scalar Network400.node200 	number_of_messages 	133
scalar Network400.node200 	discovery_latency 	1128
scalar Network400.node200 	number_of_desired_resources 	20
scalar Network400.node200 	query_homogenity_rate 	33.333333333333
scalar Network400.node200 	qrecord_time 	12321.176430165
scalar Network400.node200 	discovery_resolution_rate 	100
scalar Network400.node120 	rate_of_requesters 	1
scalar Network400.node120 	number_of_resources 	22000
scalar Network400.node120 	time_period 	4
scalar Network400.node120 	number_of_messages 	165
scalar Network400.node120 	discovery_latency 	2880
scalar Network400.node120 	number_of_desired_resources 	20
scalar Network400.node120 	query_homogenity_rate 	33.333333333333
scalar Network400.node120 	qrecord_time 	12335.743915874
scalar Network400.node120 	discovery_resolution_rate 	66.666666666667
scalar Network400.node330 	rate_of_requesters 	1
scalar Network400.node330 	number_of_resources 	22000
scalar Network400.node330 	time_period 	3
scalar Network400.node330 	number_of_messages 	83
scalar Network400.node330 	discovery_latency 	966
scalar Network400.node330 	number_of_desired_resources 	20
scalar Network400.node330 	query_homogenity_rate 	33.333333333333
scalar Network400.node330 	qrecord_time 	12382.395043977
scalar Network400.node330 	discovery_resolution_rate 	100
scalar Network400.node380 	rate_of_requesters 	1
scalar Network400.node380 	number_of_resources 	22000
scalar Network400.node380 	time_period 	3
scalar Network400.node380 	number_of_messages 	257
scalar Network400.node380 	discovery_latency 	2652
scalar Network400.node380 	number_of_desired_resources 	20
scalar Network400.node380 	query_homogenity_rate 	33.333333333333
scalar Network400.node380 	qrecord_time 	12634.326753521
scalar Network400.node380 	discovery_resolution_rate 	100
scalar Network400.node250 	rate_of_requesters 	1
scalar Network400.node250 	number_of_resources 	22000
scalar Network400.node250 	time_period 	5
scalar Network400.node250 	number_of_messages 	11
scalar Network400.node250 	discovery_latency 	2856
scalar Network400.node250 	number_of_desired_resources 	20
scalar Network400.node250 	query_homogenity_rate 	33.333333333333
scalar Network400.node250 	qrecord_time 	12650.955034273
scalar Network400.node250 	discovery_resolution_rate 	33.333333333333
scalar Network400.node130 	rate_of_requesters 	1
scalar Network400.node130 	number_of_resources 	22000
scalar Network400.node130 	time_period 	2
scalar Network400.node130 	number_of_messages 	308
scalar Network400.node130 	discovery_latency 	3024
scalar Network400.node130 	number_of_desired_resources 	20
scalar Network400.node130 	query_homogenity_rate 	33.333333333333
scalar Network400.node130 	qrecord_time 	12810.36800777
scalar Network400.node130 	discovery_resolution_rate 	83.333333333333
scalar Network400.node340 	rate_of_requesters 	1
scalar Network400.node340 	number_of_resources 	22000
scalar Network400.node340 	time_period 	3
scalar Network400.node340 	number_of_messages 	20
scalar Network400.node340 	discovery_latency 	2988
scalar Network400.node340 	number_of_desired_resources 	20
scalar Network400.node340 	query_homogenity_rate 	33.333333333333
scalar Network400.node340 	qrecord_time 	12828.680836508
scalar Network400.node340 	discovery_resolution_rate 	33.333333333333
scalar Network400.node260 	rate_of_requesters 	1
scalar Network400.node260 	number_of_resources 	22000
scalar Network400.node260 	time_period 	3
scalar Network400.node260 	number_of_messages 	2
scalar Network400.node260 	discovery_latency 	2964
scalar Network400.node260 	number_of_desired_resources 	20
scalar Network400.node260 	query_homogenity_rate 	33.333333333333
scalar Network400.node260 	qrecord_time 	12828.971392258
scalar Network400.node260 	discovery_resolution_rate 	0
scalar Network400.node120 	rate_of_requesters 	1
scalar Network400.node120 	number_of_resources 	22000
scalar Network400.node120 	time_period 	5
scalar Network400.node120 	number_of_messages 	0
scalar Network400.node120 	discovery_latency 	2988
scalar Network400.node120 	number_of_desired_resources 	20
scalar Network400.node120 	query_homogenity_rate 	33.333333333333
scalar Network400.node120 	qrecord_time 	12943.611430125
scalar Network400.node120 	discovery_resolution_rate 	0
scalar Network400.node280 	rate_of_requesters 	1
scalar Network400.node280 	number_of_resources 	22000
scalar Network400.node280 	time_period 	3
scalar Network400.node280 	number_of_messages 	91
scalar Network400.node280 	discovery_latency 	2976
scalar Network400.node280 	number_of_desired_resources 	20
scalar Network400.node280 	query_homogenity_rate 	33.333333333333
scalar Network400.node280 	qrecord_time 	13068.55447825
scalar Network400.node280 	discovery_resolution_rate 	33.333333333333
scalar Network400.node120 	rate_of_requesters 	1
scalar Network400.node120 	number_of_resources 	22000
scalar Network400.node120 	time_period 	6
scalar Network400.node120 	number_of_messages 	44
scalar Network400.node120 	discovery_latency 	3108
scalar Network400.node120 	number_of_desired_resources 	20
scalar Network400.node120 	query_homogenity_rate 	33.333333333333
scalar Network400.node120 	qrecord_time 	13330.450388564
scalar Network400.node120 	discovery_resolution_rate 	33.333333333333
scalar Network400.node250 	rate_of_requesters 	1
scalar Network400.node250 	number_of_resources 	22000
scalar Network400.node250 	time_period 	6
scalar Network400.node250 	number_of_messages 	109
scalar Network400.node250 	discovery_latency 	3072
scalar Network400.node250 	number_of_desired_resources 	20
scalar Network400.node250 	query_homogenity_rate 	33.333333333333
scalar Network400.node250 	qrecord_time 	13431.009195915
scalar Network400.node250 	discovery_resolution_rate 	66.666666666667
scalar Network400.node80 	rate_of_requesters 	1
scalar Network400.node80 	number_of_resources 	22000
scalar Network400.node80 	time_period 	2
scalar Network400.node80 	number_of_messages 	136
scalar Network400.node80 	discovery_latency 	2208
scalar Network400.node80 	number_of_desired_resources 	20
scalar Network400.node80 	query_homogenity_rate 	33.333333333333
scalar Network400.node80 	qrecord_time 	13649.752261821
scalar Network400.node80 	discovery_resolution_rate 	100
scalar Network400.node360 	rate_of_requesters 	1
scalar Network400.node360 	number_of_resources 	22000
scalar Network400.node360 	time_period 	4
scalar Network400.node360 	number_of_messages 	87
scalar Network400.node360 	discovery_latency 	1080
scalar Network400.node360 	number_of_desired_resources 	20
scalar Network400.node360 	query_homogenity_rate 	33.333333333333
scalar Network400.node360 	qrecord_time 	13737.534018049
scalar Network400.node360 	discovery_resolution_rate 	100
scalar Network400.node110 	rate_of_requesters 	1
scalar Network400.node110 	number_of_resources 	22000
scalar Network400.node110 	time_period 	2
scalar Network400.node110 	number_of_messages 	178
scalar Network400.node110 	discovery_latency 	2976
scalar Network400.node110 	number_of_desired_resources 	20
scalar Network400.node110 	query_homogenity_rate 	33.333333333333
scalar Network400.node110 	qrecord_time 	14085.034965408
scalar Network400.node110 	discovery_resolution_rate 	50
scalar Network400.node0 	rate_of_requesters 	1
scalar Network400.node0 	number_of_resources 	22000
scalar Network400.node0 	time_period 	3
scalar Network400.node0 	number_of_messages 	62
scalar Network400.node0 	discovery_latency 	3072
scalar Network400.node0 	number_of_desired_resources 	20
scalar Network400.node0 	query_homogenity_rate 	33.333333333333
scalar Network400.node0 	qrecord_time 	14149.34774899
scalar Network400.node0 	discovery_resolution_rate 	66.666666666667
scalar Network400.node290 	rate_of_requesters 	1
scalar Network400.node290 	number_of_resources 	22000
scalar Network400.node290 	time_period 	3
scalar Network400.node290 	number_of_messages 	2
scalar Network400.node290 	discovery_latency 	2868
scalar Network400.node290 	number_of_desired_resources 	20
scalar Network400.node290 	query_homogenity_rate 	33.333333333333
scalar Network400.node290 	qrecord_time 	14200.640499181
scalar Network400.node290 	discovery_resolution_rate 	0
scalar Network400.node140 	rate_of_requesters 	1
scalar Network400.node140 	number_of_resources 	22000
scalar Network400.node140 	time_period 	5
scalar Network400.node140 	number_of_messages 	16
scalar Network400.node140 	discovery_latency 	2658
scalar Network400.node140 	number_of_desired_resources 	20
scalar Network400.node140 	query_homogenity_rate 	33.333333333333
scalar Network400.node140 	qrecord_time 	14282.877834754
scalar Network400.node140 	discovery_resolution_rate 	33.333333333333
scalar Network400.node90 	rate_of_requesters 	1
scalar Network400.node90 	number_of_resources 	22000
scalar Network400.node90 	time_period 	5
scalar Network400.node90 	number_of_messages 	168
scalar Network400.node90 	discovery_latency 	1836
scalar Network400.node90 	number_of_desired_resources 	20
scalar Network400.node90 	query_homogenity_rate 	33.333333333333
scalar Network400.node90 	qrecord_time 	14388.592054395
scalar Network400.node90 	discovery_resolution_rate 	100
scalar Network400.node210 	rate_of_requesters 	1
scalar Network400.node210 	number_of_resources 	22000
scalar Network400.node210 	time_period 	4
scalar Network400.node210 	number_of_messages 	124
scalar Network400.node210 	discovery_latency 	3000
scalar Network400.node210 	number_of_desired_resources 	20
scalar Network400.node210 	query_homogenity_rate 	33.333333333333
scalar Network400.node210 	qrecord_time 	14509.971686458
scalar Network400.node210 	discovery_resolution_rate 	16.666666666667
scalar Network400.node10 	rate_of_requesters 	1
scalar Network400.node10 	number_of_resources 	22000
scalar Network400.node10 	time_period 	4
scalar Network400.node10 	number_of_messages 	136
scalar Network400.node10 	discovery_latency 	2670
scalar Network400.node10 	number_of_desired_resources 	20
scalar Network400.node10 	query_homogenity_rate 	33.333333333333
scalar Network400.node10 	qrecord_time 	14518.885126304
scalar Network400.node10 	discovery_resolution_rate 	66.666666666667
scalar Network400.node370 	rate_of_requesters 	1
scalar Network400.node370 	number_of_resources 	22000
scalar Network400.node370 	time_period 	3
scalar Network400.node370 	number_of_messages 	103
scalar Network400.node370 	discovery_latency 	1200
scalar Network400.node370 	number_of_desired_resources 	20
scalar Network400.node370 	query_homogenity_rate 	33.333333333333
scalar Network400.node370 	qrecord_time 	14519.299300959
scalar Network400.node370 	discovery_resolution_rate 	100
scalar Network400.node80 	rate_of_requesters 	1
scalar Network400.node80 	number_of_resources 	22000
scalar Network400.node80 	time_period 	3
scalar Network400.node80 	number_of_messages 	182
scalar Network400.node80 	discovery_latency 	2574
scalar Network400.node80 	number_of_desired_resources 	20
scalar Network400.node80 	query_homogenity_rate 	33.333333333333
scalar Network400.node80 	qrecord_time 	14581.761068909
scalar Network400.node80 	discovery_resolution_rate 	83.333333333333
scalar Network400.node110 	rate_of_requesters 	1
scalar Network400.node110 	number_of_resources 	22000
scalar Network400.node110 	time_period 	4
scalar Network400.node110 	number_of_messages 	114
scalar Network400.node110 	discovery_latency 	2472
scalar Network400.node110 	number_of_desired_resources 	20
scalar Network400.node110 	query_homogenity_rate 	33.333333333333
scalar Network400.node110 	qrecord_time 	14600.792859967
scalar Network400.node110 	discovery_resolution_rate 	66.666666666667
scalar Network400.node10 	rate_of_requesters 	1
scalar Network400.node10 	number_of_resources 	22000
scalar Network400.node10 	time_period 	5
scalar Network400.node10 	number_of_messages 	85
scalar Network400.node10 	discovery_latency 	2940
scalar Network400.node10 	number_of_desired_resources 	20
scalar Network400.node10 	query_homogenity_rate 	33.333333333333
scalar Network400.node10 	qrecord_time 	14868.16957931
scalar Network400.node10 	discovery_resolution_rate 	33.333333333333
scalar Network400.node290 	rate_of_requesters 	1
scalar Network400.node290 	number_of_resources 	22000
scalar Network400.node290 	time_period 	4
scalar Network400.node290 	number_of_messages 	2
scalar Network400.node290 	discovery_latency 	2856
scalar Network400.node290 	number_of_desired_resources 	20
scalar Network400.node290 	query_homogenity_rate 	33.333333333333
scalar Network400.node290 	qrecord_time 	14878.267465281
scalar Network400.node290 	discovery_resolution_rate 	0
scalar Network400.node110 	rate_of_requesters 	1
scalar Network400.node110 	number_of_resources 	22000
scalar Network400.node110 	time_period 	3
scalar Network400.node110 	number_of_messages 	60
scalar Network400.node110 	discovery_latency 	2916
scalar Network400.node110 	number_of_desired_resources 	20
scalar Network400.node110 	query_homogenity_rate 	33.333333333333
scalar Network400.node110 	qrecord_time 	14938.124352859
scalar Network400.node110 	discovery_resolution_rate 	66.666666666667
scalar Network400.node190 	rate_of_requesters 	1
scalar Network400.node190 	number_of_resources 	22000
scalar Network400.node190 	time_period 	3
scalar Network400.node190 	number_of_messages 	2
scalar Network400.node190 	discovery_latency 	3000
scalar Network400.node190 	number_of_desired_resources 	20
scalar Network400.node190 	query_homogenity_rate 	33.333333333333
scalar Network400.node190 	qrecord_time 	15023.758839741
scalar Network400.node190 	discovery_resolution_rate 	0
scalar Network400.node30 	rate_of_requesters 	1
scalar Network400.node30 	number_of_resources 	22000
scalar Network400.node30 	time_period 	3
scalar Network400.node30 	number_of_messages 	64
scalar Network400.node30 	discovery_latency 	2694
scalar Network400.node30 	number_of_desired_resources 	20
scalar Network400.node30 	query_homogenity_rate 	33.333333333333
scalar Network400.node30 	qrecord_time 	15125.715300108
scalar Network400.node30 	discovery_resolution_rate 	33.333333333333
scalar Network400.node250 	rate_of_requesters 	1
scalar Network400.node250 	number_of_resources 	22000
scalar Network400.node250 	time_period 	7
scalar Network400.node250 	number_of_messages 	26
scalar Network400.node250 	discovery_latency 	2598
scalar Network400.node250 	number_of_desired_resources 	20
scalar Network400.node250 	query_homogenity_rate 	33.333333333333
scalar Network400.node250 	qrecord_time 	15172.049254573
scalar Network400.node250 	discovery_resolution_rate 	33.333333333333
scalar Network400.node210 	rate_of_requesters 	1
scalar Network400.node210 	number_of_resources 	22000
scalar Network400.node210 	time_period 	5
scalar Network400.node210 	number_of_messages 	178
scalar Network400.node210 	discovery_latency 	2622
scalar Network400.node210 	number_of_desired_resources 	20
scalar Network400.node210 	query_homogenity_rate 	33.333333333333
scalar Network400.node210 	qrecord_time 	15192.355539085
scalar Network400.node210 	discovery_resolution_rate 	66.666666666667
scalar Network400.node130 	rate_of_requesters 	1
scalar Network400.node130 	number_of_resources 	22000
scalar Network400.node130 	time_period 	3
scalar Network400.node130 	number_of_messages 	75
scalar Network400.node130 	discovery_latency 	3048
scalar Network400.node130 	number_of_desired_resources 	20
scalar Network400.node130 	query_homogenity_rate 	33.333333333333
scalar Network400.node130 	qrecord_time 	15589.308247487
scalar Network400.node130 	discovery_resolution_rate 	33.333333333333
scalar Network400.node220 	rate_of_requesters 	1
scalar Network400.node220 	number_of_resources 	22000
scalar Network400.node220 	time_period 	3
scalar Network400.node220 	number_of_messages 	209
scalar Network400.node220 	discovery_latency 	2196
scalar Network400.node220 	number_of_desired_resources 	20
scalar Network400.node220 	query_homogenity_rate 	33.333333333333
scalar Network400.node220 	qrecord_time 	15929.494493832
scalar Network400.node220 	discovery_resolution_rate 	100
scalar Network400.node290 	rate_of_requesters 	1
scalar Network400.node290 	number_of_resources 	22000
scalar Network400.node290 	time_period 	5
scalar Network400.node290 	number_of_messages 	116
scalar Network400.node290 	discovery_latency 	2988
scalar Network400.node290 	number_of_desired_resources 	20
scalar Network400.node290 	query_homogenity_rate 	33.333333333333
scalar Network400.node290 	qrecord_time 	16078.206838618
scalar Network400.node290 	discovery_resolution_rate 	66.666666666667
scalar Network400.node40 	rate_of_requesters 	1
scalar Network400.node40 	number_of_resources 	22000
scalar Network400.node40 	time_period 	4
scalar Network400.node40 	number_of_messages 	24
scalar Network400.node40 	discovery_latency 	2988
scalar Network400.node40 	number_of_desired_resources 	20
scalar Network400.node40 	query_homogenity_rate 	33.333333333333
scalar Network400.node40 	qrecord_time 	16215.398977289
scalar Network400.node40 	discovery_resolution_rate 	66.666666666667
scalar Network400.node390 	rate_of_requesters 	1
scalar Network400.node390 	number_of_resources 	22000
scalar Network400.node390 	time_period 	3
scalar Network400.node390 	number_of_messages 	57
scalar Network400.node390 	discovery_latency 	2868
scalar Network400.node390 	number_of_desired_resources 	20
scalar Network400.node390 	query_homogenity_rate 	33.333333333333
scalar Network400.node390 	qrecord_time 	16260.288536049
scalar Network400.node390 	discovery_resolution_rate 	66.666666666667
scalar Network400.node70 	rate_of_requesters 	1
scalar Network400.node70 	number_of_resources 	22000
scalar Network400.node70 	time_period 	3
scalar Network400.node70 	number_of_messages 	59
scalar Network400.node70 	discovery_latency 	3024
scalar Network400.node70 	number_of_desired_resources 	20
scalar Network400.node70 	query_homogenity_rate 	33.333333333333
scalar Network400.node70 	qrecord_time 	16450.238306491
scalar Network400.node70 	discovery_resolution_rate 	33.333333333333
scalar Network400.node70 	rate_of_requesters 	1
scalar Network400.node70 	number_of_resources 	22000
scalar Network400.node70 	time_period 	4
scalar Network400.node70 	number_of_messages 	116
scalar Network400.node70 	discovery_latency 	2658
scalar Network400.node70 	number_of_desired_resources 	20
scalar Network400.node70 	query_homogenity_rate 	33.333333333333
scalar Network400.node70 	qrecord_time 	16651.93672793
scalar Network400.node70 	discovery_resolution_rate 	66.666666666667
scalar Network400.node220 	rate_of_requesters 	1
scalar Network400.node220 	number_of_resources 	22000
scalar Network400.node220 	time_period 	4
scalar Network400.node220 	number_of_messages 	215
scalar Network400.node220 	discovery_latency 	2940
scalar Network400.node220 	number_of_desired_resources 	20
scalar Network400.node220 	query_homogenity_rate 	33.333333333333
scalar Network400.node220 	qrecord_time 	16678.915506967
scalar Network400.node220 	discovery_resolution_rate 	83.333333333333
scalar Network400.node250 	rate_of_requesters 	1
scalar Network400.node250 	number_of_resources 	22000
scalar Network400.node250 	time_period 	8
scalar Network400.node250 	number_of_messages 	289
scalar Network400.node250 	discovery_latency 	2952
scalar Network400.node250 	number_of_desired_resources 	20
scalar Network400.node250 	query_homogenity_rate 	33.333333333333
scalar Network400.node250 	qrecord_time 	16687.629191126
scalar Network400.node250 	discovery_resolution_rate 	83.333333333333
scalar Network400.node280 	rate_of_requesters 	1
scalar Network400.node280 	number_of_resources 	22000
scalar Network400.node280 	time_period 	4
scalar Network400.node280 	number_of_messages 	84
scalar Network400.node280 	discovery_latency 	2844
scalar Network400.node280 	number_of_desired_resources 	20
scalar Network400.node280 	query_homogenity_rate 	33.333333333333
scalar Network400.node280 	qrecord_time 	16758.836328776
scalar Network400.node280 	discovery_resolution_rate 	33.333333333333
scalar Network400.node190 	rate_of_requesters 	1
scalar Network400.node190 	number_of_resources 	22000
scalar Network400.node190 	time_period 	4
scalar Network400.node190 	number_of_messages 	169
scalar Network400.node190 	discovery_latency 	2562
scalar Network400.node190 	number_of_desired_resources 	20
scalar Network400.node190 	query_homogenity_rate 	33.333333333333
scalar Network400.node190 	qrecord_time 	16770.849520855
scalar Network400.node190 	discovery_resolution_rate 	66.666666666667
scalar Network400.node0 	rate_of_requesters 	1
scalar Network400.node0 	number_of_resources 	22000
scalar Network400.node0 	time_period 	5
scalar Network400.node0 	number_of_messages 	137
scalar Network400.node0 	discovery_latency 	2562
scalar Network400.node0 	number_of_desired_resources 	20
scalar Network400.node0 	query_homogenity_rate 	33.333333333333
scalar Network400.node0 	qrecord_time 	16804.567397963
scalar Network400.node0 	discovery_resolution_rate 	66.666666666667
scalar Network400.node0 	rate_of_requesters 	1
scalar Network400.node0 	number_of_resources 	22000
scalar Network400.node0 	time_period 	4
scalar Network400.node0 	number_of_messages 	182
scalar Network400.node0 	discovery_latency 	2892
scalar Network400.node0 	number_of_desired_resources 	20
scalar Network400.node0 	query_homogenity_rate 	33.333333333333
scalar Network400.node0 	qrecord_time 	16866.521793956
scalar Network400.node0 	discovery_resolution_rate 	50
scalar Network400.node150 	rate_of_requesters 	1
scalar Network400.node150 	number_of_resources 	22000
scalar Network400.node150 	time_period 	5
scalar Network400.node150 	number_of_messages 	55
scalar Network400.node150 	discovery_latency 	2562
scalar Network400.node150 	number_of_desired_resources 	20
scalar Network400.node150 	query_homogenity_rate 	33.333333333333
scalar Network400.node150 	qrecord_time 	17060.712489735
scalar Network400.node150 	discovery_resolution_rate 	66.666666666667
scalar Network400.node360 	rate_of_requesters 	1
scalar Network400.node360 	number_of_resources 	22000
scalar Network400.node360 	time_period 	5
scalar Network400.node360 	number_of_messages 	190
scalar Network400.node360 	discovery_latency 	2748
scalar Network400.node360 	number_of_desired_resources 	20
scalar Network400.node360 	query_homogenity_rate 	33.333333333333
scalar Network400.node360 	qrecord_time 	17495.620834106
scalar Network400.node360 	discovery_resolution_rate 	100
scalar Network400.node350 	rate_of_requesters 	1
scalar Network400.node350 	number_of_resources 	22000
scalar Network400.node350 	time_period 	3
scalar Network400.node350 	number_of_messages 	18
scalar Network400.node350 	discovery_latency 	2940
scalar Network400.node350 	number_of_desired_resources 	20
scalar Network400.node350 	query_homogenity_rate 	33.333333333333
scalar Network400.node350 	qrecord_time 	17546.064575552
scalar Network400.node350 	discovery_resolution_rate 	33.333333333333
scalar Network400.node190 	rate_of_requesters 	1
scalar Network400.node190 	number_of_resources 	22000
scalar Network400.node190 	time_period 	5
scalar Network400.node190 	number_of_messages 	40
scalar Network400.node190 	discovery_latency 	3036
scalar Network400.node190 	number_of_desired_resources 	20
scalar Network400.node190 	query_homogenity_rate 	33.333333333333
scalar Network400.node190 	qrecord_time 	17715.48028317
scalar Network400.node190 	discovery_resolution_rate 	33.333333333333
scalar Network400.node90 	rate_of_requesters 	1
scalar Network400.node90 	number_of_resources 	22000
scalar Network400.node90 	time_period 	6
scalar Network400.node90 	number_of_messages 	137
scalar Network400.node90 	discovery_latency 	2508
scalar Network400.node90 	number_of_desired_resources 	20
scalar Network400.node90 	query_homogenity_rate 	33.333333333333
scalar Network400.node90 	qrecord_time 	17737.182461317
scalar Network400.node90 	discovery_resolution_rate 	66.666666666667
scalar Network400.node10 	rate_of_requesters 	1
scalar Network400.node10 	number_of_resources 	22000
scalar Network400.node10 	time_period 	6
scalar Network400.node10 	number_of_messages 	37
scalar Network400.node10 	discovery_latency 	2460
scalar Network400.node10 	number_of_desired_resources 	20
scalar Network400.node10 	query_homogenity_rate 	33.333333333333
scalar Network400.node10 	qrecord_time 	18002.655735811
scalar Network400.node10 	discovery_resolution_rate 	66.666666666667
scalar Network400.node20 	rate_of_requesters 	1
scalar Network400.node20 	number_of_resources 	22000
scalar Network400.node20 	time_period 	5
scalar Network400.node20 	number_of_messages 	212
scalar Network400.node20 	discovery_latency 	2928
scalar Network400.node20 	number_of_desired_resources 	20
scalar Network400.node20 	query_homogenity_rate 	33.333333333333
scalar Network400.node20 	qrecord_time 	18071.120120146
scalar Network400.node20 	discovery_resolution_rate 	83.333333333333
scalar Network400.node280 	rate_of_requesters 	1
scalar Network400.node280 	number_of_resources 	22000
scalar Network400.node280 	time_period 	5
scalar Network400.node280 	number_of_messages 	198
scalar Network400.node280 	discovery_latency 	2952
scalar Network400.node280 	number_of_desired_resources 	20
scalar Network400.node280 	query_homogenity_rate 	33.333333333333
scalar Network400.node280 	qrecord_time 	18096.969589966
scalar Network400.node280 	discovery_resolution_rate 	50
scalar Network400.node320 	rate_of_requesters 	1
scalar Network400.node320 	number_of_resources 	22000
scalar Network400.node320 	time_period 	3
scalar Network400.node320 	number_of_messages 	54
scalar Network400.node320 	discovery_latency 	3072
scalar Network400.node320 	number_of_desired_resources 	20
scalar Network400.node320 	query_homogenity_rate 	33.333333333333
scalar Network400.node320 	qrecord_time 	18110.973954863
scalar Network400.node320 	discovery_resolution_rate 	33.333333333333
scalar Network400.node330 	rate_of_requesters 	1
scalar Network400.node330 	number_of_resources 	22000
scalar Network400.node330 	time_period 	4
scalar Network400.node330 	number_of_messages 	22
scalar Network400.node330 	discovery_latency 	2940
scalar Network400.node330 	number_of_desired_resources 	20
scalar Network400.node330 	query_homogenity_rate 	33.333333333333
scalar Network400.node330 	qrecord_time 	18339.55716716
scalar Network400.node330 	discovery_resolution_rate 	33.333333333333
scalar Network400.node160 	rate_of_requesters 	1
scalar Network400.node160 	number_of_resources 	22000
scalar Network400.node160 	time_period 	2
scalar Network400.node160 	number_of_messages 	33
scalar Network400.node160 	discovery_latency 	2904
scalar Network400.node160 	number_of_desired_resources 	20
scalar Network400.node160 	query_homogenity_rate 	33.333333333333
scalar Network400.node160 	qrecord_time 	18472.575538074
scalar Network400.node160 	discovery_resolution_rate 	33.333333333333
scalar Network400.node200 	rate_of_requesters 	1
scalar Network400.node200 	number_of_resources 	22000
scalar Network400.node200 	time_period 	3
scalar Network400.node200 	number_of_messages 	79
scalar Network400.node200 	discovery_latency 	2460
scalar Network400.node200 	number_of_desired_resources 	20
scalar Network400.node200 	query_homogenity_rate 	33.333333333333
scalar Network400.node200 	qrecord_time 	18569.686156444
scalar Network400.node200 	discovery_resolution_rate 	66.666666666667
scalar Network400.node340 	rate_of_requesters 	1
scalar Network400.node340 	number_of_resources 	22000
scalar Network400.node340 	time_period 	4
scalar Network400.node340 	number_of_messages 	163
scalar Network400.node340 	discovery_latency 	2892
scalar Network400.node340 	number_of_desired_resources 	20
scalar Network400.node340 	query_homogenity_rate 	33.333333333333
scalar Network400.node340 	qrecord_time 	18667.248121826
scalar Network400.node340 	discovery_resolution_rate 	66.666666666667
scalar Network400.node170 	rate_of_requesters 	1
scalar Network400.node170 	number_of_resources 	22000
scalar Network400.node170 	time_period 	2
scalar Network400.node170 	number_of_messages 	135
scalar Network400.node170 	discovery_latency 	2484
scalar Network400.node170 	number_of_desired_resources 	20
scalar Network400.node170 	query_homogenity_rate 	33.333333333333
scalar Network400.node170 	qrecord_time 	18747.397304494
scalar Network400.node170 	discovery_resolution_rate 	66.666666666667
scalar Network400.node140 	rate_of_requesters 	1
scalar Network400.node140 	number_of_resources 	22000
scalar Network400.node140 	time_period 	6
scalar Network400.node140 	number_of_messages 	0
scalar Network400.node140 	discovery_latency 	2916
scalar Network400.node140 	number_of_desired_resources 	20
scalar Network400.node140 	query_homogenity_rate 	33.333333333333
scalar Network400.node140 	qrecord_time 	18774.077010167
scalar Network400.node140 	discovery_resolution_rate 	0
scalar Network400.node250 	rate_of_requesters 	1
scalar Network400.node250 	number_of_resources 	22000
scalar Network400.node250 	time_period 	9
scalar Network400.node250 	number_of_messages 	157
scalar Network400.node250 	discovery_latency 	2832
scalar Network400.node250 	number_of_desired_resources 	20
scalar Network400.node250 	query_homogenity_rate 	33.333333333333
scalar Network400.node250 	qrecord_time 	18988.955572459
scalar Network400.node250 	discovery_resolution_rate 	66.666666666667
scalar Network400.node40 	rate_of_requesters 	1
scalar Network400.node40 	number_of_resources 	22000
scalar Network400.node40 	time_period 	5
scalar Network400.node40 	number_of_messages 	103
scalar Network400.node40 	discovery_latency 	2610
scalar Network400.node40 	number_of_desired_resources 	20
scalar Network400.node40 	query_homogenity_rate 	33.333333333333
scalar Network400.node40 	qrecord_time 	19082.714062513
scalar Network400.node40 	discovery_resolution_rate 	33.333333333333
scalar Network400.node120 	rate_of_requesters 	1
scalar Network400.node120 	number_of_resources 	22000
scalar Network400.node120 	time_period 	7
scalar Network400.node120 	number_of_messages 	61
scalar Network400.node120 	discovery_latency 	2460
scalar Network400.node120 	number_of_desired_resources 	20
scalar Network400.node120 	query_homogenity_rate 	33.333333333333
scalar Network400.node120 	qrecord_time 	19196.489166642
scalar Network400.node120 	discovery_resolution_rate 	66.666666666667
scalar Network400.node220 	rate_of_requesters 	1
scalar Network400.node220 	number_of_resources 	22000
scalar Network400.node220 	time_period 	5
scalar Network400.node220 	number_of_messages 	132
scalar Network400.node220 	discovery_latency 	2964
scalar Network400.node220 	number_of_desired_resources 	20
scalar Network400.node220 	query_homogenity_rate 	33.333333333333
scalar Network400.node220 	qrecord_time 	19203.284951766
scalar Network400.node220 	discovery_resolution_rate 	66.666666666667
scalar Network400.node270 	rate_of_requesters 	1
scalar Network400.node270 	number_of_resources 	22000
scalar Network400.node270 	time_period 	5
scalar Network400.node270 	number_of_messages 	147
scalar Network400.node270 	discovery_latency 	2730
scalar Network400.node270 	number_of_desired_resources 	20
scalar Network400.node270 	query_homogenity_rate 	33.333333333333
scalar Network400.node270 	qrecord_time 	19215.510309358
scalar Network400.node270 	discovery_resolution_rate 	66.666666666667
scalar Network400.node110 	rate_of_requesters 	1
scalar Network400.node110 	number_of_resources 	22000
scalar Network400.node110 	time_period 	5
scalar Network400.node110 	number_of_messages 	43
scalar Network400.node110 	discovery_latency 	2598
scalar Network400.node110 	number_of_desired_resources 	20
scalar Network400.node110 	query_homogenity_rate 	33.333333333333
scalar Network400.node110 	qrecord_time 	19288.028153433
scalar Network400.node110 	discovery_resolution_rate 	33.333333333333
scalar Network400.node370 	rate_of_requesters 	1
scalar Network400.node370 	number_of_resources 	22000
scalar Network400.node370 	time_period 	4
scalar Network400.node370 	number_of_messages 	2
scalar Network400.node370 	discovery_latency 	2928
scalar Network400.node370 	number_of_desired_resources 	20
scalar Network400.node370 	query_homogenity_rate 	33.333333333333
scalar Network400.node370 	qrecord_time 	19466.304424568
scalar Network400.node370 	discovery_resolution_rate 	0
scalar Network400.node220 	rate_of_requesters 	1
scalar Network400.node220 	number_of_resources 	22000
scalar Network400.node220 	time_period 	6
scalar Network400.node220 	number_of_messages 	17
scalar Network400.node220 	discovery_latency 	2670
scalar Network400.node220 	number_of_desired_resources 	20
scalar Network400.node220 	query_homogenity_rate 	33.333333333333
scalar Network400.node220 	qrecord_time 	19586.85684214
scalar Network400.node220 	discovery_resolution_rate 	33.333333333333
scalar Network400.node80 	rate_of_requesters 	1
scalar Network400.node80 	number_of_resources 	22000
scalar Network400.node80 	time_period 	4
scalar Network400.node80 	number_of_messages 	153
scalar Network400.node80 	discovery_latency 	2916
scalar Network400.node80 	number_of_desired_resources 	20
scalar Network400.node80 	query_homogenity_rate 	33.333333333333
scalar Network400.node80 	qrecord_time 	19603.273012229
scalar Network400.node80 	discovery_resolution_rate 	16.666666666667
scalar Network400.node30 	rate_of_requesters 	1
scalar Network400.node30 	number_of_resources 	22000
scalar Network400.node30 	time_period 	4
scalar Network400.node30 	number_of_messages 	275
scalar Network400.node30 	discovery_latency 	2928
scalar Network400.node30 	number_of_desired_resources 	20
scalar Network400.node30 	query_homogenity_rate 	33.333333333333
scalar Network400.node30 	qrecord_time 	19638.405117163
scalar Network400.node30 	discovery_resolution_rate 	33.333333333333
scalar Network400.node90 	rate_of_requesters 	1
scalar Network400.node90 	number_of_resources 	22000
scalar Network400.node90 	time_period 	7
scalar Network400.node90 	number_of_messages 	153
scalar Network400.node90 	discovery_latency 	2952
scalar Network400.node90 	number_of_desired_resources 	20
scalar Network400.node90 	query_homogenity_rate 	33.333333333333
scalar Network400.node90 	qrecord_time 	19641.210857015
scalar Network400.node90 	discovery_resolution_rate 	16.666666666667
scalar Network400.node70 	rate_of_requesters 	1
scalar Network400.node70 	number_of_resources 	22000
scalar Network400.node70 	time_period 	5
scalar Network400.node70 	number_of_messages 	33
scalar Network400.node70 	discovery_latency 	2616
scalar Network400.node70 	number_of_desired_resources 	20
scalar Network400.node70 	query_homogenity_rate 	33.333333333333
[...]
scalar Network400.node30 	discovery_resolution_rate 	100
scalar Network400.node310 	rate_of_requesters 	1
scalar Network400.node310 	number_of_resources 	22000
scalar Network400.node310 	time_period 	8
scalar Network400.node310 	number_of_messages 	53
scalar Network400.node310 	discovery_latency 	480
scalar Network400.node310 	number_of_desired_resources 	20
scalar Network400.node310 	query_homogenity_rate 	33.333333333333
scalar Network400.node310 	qrecord_time 	42411.47959122
scalar Network400.node310 	discovery_resolution_rate 	100
scalar Network400.node30 	rate_of_requesters 	1
scalar Network400.node30 	number_of_resources 	22000
scalar Network400.node30 	time_period 	9
scalar Network400.node30 	number_of_messages 	70
scalar Network400.node30 	discovery_latency 	1128
scalar Network400.node30 	number_of_desired_resources 	20
scalar Network400.node30 	query_homogenity_rate 	33.333333333333
scalar Network400.node30 	qrecord_time 	42722.321248453
scalar Network400.node30 	discovery_resolution_rate 	100
scalar Network400.node100 	rate_of_requesters 	1
scalar Network400.node100 	number_of_resources 	22000
scalar Network400.node100 	time_period 	7
scalar Network400.node100 	number_of_messages 	25
scalar Network400.node100 	discovery_latency 	180
scalar Network400.node100 	number_of_desired_resources 	20
scalar Network400.node100 	query_homogenity_rate 	33.333333333333
scalar Network400.node100 	qrecord_time 	42792.657524358
scalar Network400.node100 	discovery_resolution_rate 	100
scalar Network400.node310 	rate_of_requesters 	1
scalar Network400.node310 	number_of_resources 	22000
scalar Network400.node310 	time_period 	9
scalar Network400.node310 	number_of_messages 	42
scalar Network400.node310 	discovery_latency 	450
scalar Network400.node310 	number_of_desired_resources 	20
scalar Network400.node310 	query_homogenity_rate 	33.333333333333
scalar Network400.node310 	qrecord_time 	42910.59431896
scalar Network400.node310 	discovery_resolution_rate 	100
scalar Network400.node100 	rate_of_requesters 	1
scalar Network400.node100 	number_of_resources 	22000
scalar Network400.node100 	time_period 	6
scalar Network400.node100 	number_of_messages 	75
scalar Network400.node100 	discovery_latency 	1296
scalar Network400.node100 	number_of_desired_resources 	20
scalar Network400.node100 	query_homogenity_rate 	33.333333333333
scalar Network400.node100 	qrecord_time 	43052.60635809
scalar Network400.node100 	discovery_resolution_rate 	100
scalar Network400.node100 	rate_of_requesters 	1
scalar Network400.node100 	number_of_resources 	22000
scalar Network400.node100 	time_period 	8
scalar Network400.node100 	number_of_messages 	52
scalar Network400.node100 	discovery_latency 	576
scalar Network400.node100 	number_of_desired_resources 	20
scalar Network400.node100 	query_homogenity_rate 	33.333333333333
scalar Network400.node100 	qrecord_time 	43447.609884408
scalar Network400.node100 	discovery_resolution_rate 	100
scalar Network400.node240 	rate_of_requesters 	1
scalar Network400.node240 	number_of_resources 	22000
scalar Network400.node240 	time_period 	10
scalar Network400.node240 	number_of_messages 	87
scalar Network400.node240 	discovery_latency 	1248
scalar Network400.node240 	number_of_desired_resources 	20
scalar Network400.node240 	query_homogenity_rate 	33.333333333333
scalar Network400.node240 	qrecord_time 	43500.25304609
scalar Network400.node240 	discovery_resolution_rate 	100
scalar Network400.node240 	rate_of_requesters 	1
scalar Network400.node240 	number_of_resources 	22000
scalar Network400.node240 	time_period 	9
scalar Network400.node240 	number_of_messages 	138
scalar Network400.node240 	discovery_latency 	1572
scalar Network400.node240 	number_of_desired_resources 	20
scalar Network400.node240 	query_homogenity_rate 	33.333333333333
scalar Network400.node240 	qrecord_time 	43547.411871888
scalar Network400.node240 	discovery_resolution_rate 	100
scalar Network400.node380 	rate_of_requesters 	1
scalar Network400.node380 	number_of_resources 	22000
scalar Network400.node380 	time_period 	8
scalar Network400.node380 	number_of_messages 	79
scalar Network400.node380 	discovery_latency 	1248
scalar Network400.node380 	number_of_desired_resources 	20
scalar Network400.node380 	query_homogenity_rate 	33.333333333333
scalar Network400.node380 	qrecord_time 	44221.327943006
scalar Network400.node380 	discovery_resolution_rate 	100
scalar Network400.node50 	rate_of_requesters 	1
scalar Network400.node50 	number_of_resources 	22000
scalar Network400.node50 	time_period 	8
scalar Network400.node50 	number_of_messages 	53
scalar Network400.node50 	discovery_latency 	468
scalar Network400.node50 	number_of_desired_resources 	20
scalar Network400.node50 	query_homogenity_rate 	33.333333333333
scalar Network400.node50 	qrecord_time 	44606.263375043
scalar Network400.node50 	discovery_resolution_rate 	100
scalar Network400.node130 	rate_of_requesters 	1
scalar Network400.node130 	number_of_resources 	22000
scalar Network400.node130 	time_period 	7
scalar Network400.node130 	number_of_messages 	73
scalar Network400.node130 	discovery_latency 	1032
scalar Network400.node130 	number_of_desired_resources 	20
scalar Network400.node130 	query_homogenity_rate 	33.333333333333
scalar Network400.node130 	qrecord_time 	44606.897754777
scalar Network400.node130 	discovery_resolution_rate 	100
scalar Network400.node50 	rate_of_requesters 	1
scalar Network400.node50 	number_of_resources 	22000
scalar Network400.node50 	time_period 	9
scalar Network400.node50 	number_of_messages 	83
scalar Network400.node50 	discovery_latency 	768
scalar Network400.node50 	number_of_desired_resources 	20
scalar Network400.node50 	query_homogenity_rate 	33.333333333333
scalar Network400.node50 	qrecord_time 	45434.951486607
scalar Network400.node50 	discovery_resolution_rate 	100
scalar Network400.node110 	rate_of_requesters 	1
scalar Network400.node110 	number_of_resources 	22000
scalar Network400.node110 	time_period 	9
scalar Network400.node110 	number_of_messages 	74
scalar Network400.node110 	discovery_latency 	846
scalar Network400.node110 	number_of_desired_resources 	20
scalar Network400.node110 	query_homogenity_rate 	33.333333333333
scalar Network400.node110 	qrecord_time 	45482.477942608
scalar Network400.node110 	discovery_resolution_rate 	100
scalar Network400.node150 	rate_of_requesters 	1
scalar Network400.node150 	number_of_resources 	22000
scalar Network400.node150 	time_period 	10
scalar Network400.node150 	number_of_messages 	122
scalar Network400.node150 	discovery_latency 	2112
scalar Network400.node150 	number_of_desired_resources 	20
scalar Network400.node150 	query_homogenity_rate 	33.333333333333
scalar Network400.node150 	qrecord_time 	45700.301523691
scalar Network400.node150 	discovery_resolution_rate 	100
scalar Network400.node310 	rate_of_requesters 	1
scalar Network400.node310 	number_of_resources 	22000
scalar Network400.node310 	time_period 	10
scalar Network400.node310 	number_of_messages 	98
scalar Network400.node310 	discovery_latency 	791.99999999999
scalar Network400.node310 	number_of_desired_resources 	20
scalar Network400.node310 	query_homogenity_rate 	33.333333333333
scalar Network400.node310 	qrecord_time 	45753.984643846
scalar Network400.node310 	discovery_resolution_rate 	100
scalar Network400.node160 	rate_of_requesters 	1
scalar Network400.node160 	number_of_resources 	22000
scalar Network400.node160 	time_period 	9
scalar Network400.node160 	number_of_messages 	83
scalar Network400.node160 	discovery_latency 	1248
scalar Network400.node160 	number_of_desired_resources 	20
scalar Network400.node160 	query_homogenity_rate 	33.333333333333
scalar Network400.node160 	qrecord_time 	46153.971675198
scalar Network400.node160 	discovery_resolution_rate 	100
scalar Network400.node60 	rate_of_requesters 	1
scalar Network400.node60 	number_of_resources 	22000
scalar Network400.node60 	time_period 	10
scalar Network400.node60 	number_of_messages 	40
scalar Network400.node60 	discovery_latency 	587.99999999999
scalar Network400.node60 	number_of_desired_resources 	20
scalar Network400.node60 	query_homogenity_rate 	33.333333333333
scalar Network400.node60 	qrecord_time 	46438.895579716
scalar Network400.node60 	discovery_resolution_rate 	100
scalar Network400.node300 	rate_of_requesters 	1
scalar Network400.node300 	number_of_resources 	22000
scalar Network400.node300 	time_period 	7
scalar Network400.node300 	number_of_messages 	35
scalar Network400.node300 	discovery_latency 	408
scalar Network400.node300 	number_of_desired_resources 	20
scalar Network400.node300 	query_homogenity_rate 	33.333333333333
scalar Network400.node300 	qrecord_time 	46439.132582294
scalar Network400.node300 	discovery_resolution_rate 	100
scalar Network400.node130 	rate_of_requesters 	1
scalar Network400.node130 	number_of_resources 	22000
scalar Network400.node130 	time_period 	8
scalar Network400.node130 	number_of_messages 	134
scalar Network400.node130 	discovery_latency 	1536
scalar Network400.node130 	number_of_desired_resources 	20
scalar Network400.node130 	query_homogenity_rate 	33.333333333333
scalar Network400.node130 	qrecord_time 	46446.569197345
scalar Network400.node130 	discovery_resolution_rate 	100
scalar Network400.node320 	rate_of_requesters 	1
scalar Network400.node320 	number_of_resources 	22000
scalar Network400.node320 	time_period 	6
scalar Network400.node320 	number_of_messages 	46
scalar Network400.node320 	discovery_latency 	468
scalar Network400.node320 	number_of_desired_resources 	20
scalar Network400.node320 	query_homogenity_rate 	33.333333333333
scalar Network400.node320 	qrecord_time 	46471.504515272
scalar Network400.node320 	discovery_resolution_rate 	100
scalar Network400.node360 	rate_of_requesters 	1
scalar Network400.node360 	number_of_resources 	22000
scalar Network400.node360 	time_period 	10
scalar Network400.node360 	number_of_messages 	43
scalar Network400.node360 	discovery_latency 	408
scalar Network400.node360 	number_of_desired_resources 	20
scalar Network400.node360 	query_homogenity_rate 	33.333333333333
scalar Network400.node360 	qrecord_time 	47281.580428656
scalar Network400.node360 	discovery_resolution_rate 	100
scalar Network400.node130 	rate_of_requesters 	1
scalar Network400.node130 	number_of_resources 	22000
scalar Network400.node130 	time_period 	9
scalar Network400.node130 	number_of_messages 	77
scalar Network400.node130 	discovery_latency 	1044
scalar Network400.node130 	number_of_desired_resources 	20
scalar Network400.node130 	query_homogenity_rate 	33.333333333333
scalar Network400.node130 	qrecord_time 	47340.737013431
scalar Network400.node130 	discovery_resolution_rate 	100
scalar Network400.node320 	rate_of_requesters 	1
scalar Network400.node320 	number_of_resources 	22000
scalar Network400.node320 	time_period 	7
scalar Network400.node320 	number_of_messages 	41
scalar Network400.node320 	discovery_latency 	516
scalar Network400.node320 	number_of_desired_resources 	20
scalar Network400.node320 	query_homogenity_rate 	33.333333333333
scalar Network400.node320 	qrecord_time 	47461.159368648
scalar Network400.node320 	discovery_resolution_rate 	100
scalar Network400.node300 	rate_of_requesters 	1
scalar Network400.node300 	number_of_resources 	22000
scalar Network400.node300 	time_period 	8
scalar Network400.node300 	number_of_messages 	31
scalar Network400.node300 	discovery_latency 	300
scalar Network400.node300 	number_of_desired_resources 	20
scalar Network400.node300 	query_homogenity_rate 	33.333333333333
scalar Network400.node300 	qrecord_time 	48189.828926684
scalar Network400.node300 	discovery_resolution_rate 	100
scalar Network400.node160 	rate_of_requesters 	1
scalar Network400.node160 	number_of_resources 	22000
scalar Network400.node160 	time_period 	10
scalar Network400.node160 	number_of_messages 	43
scalar Network400.node160 	discovery_latency 	432
scalar Network400.node160 	number_of_desired_resources 	20
scalar Network400.node160 	query_homogenity_rate 	33.333333333333
scalar Network400.node160 	qrecord_time 	48199.015221007
scalar Network400.node160 	discovery_resolution_rate 	100
scalar Network400.node300 	rate_of_requesters 	1
scalar Network400.node300 	number_of_resources 	22000
scalar Network400.node300 	time_period 	9
scalar Network400.node300 	number_of_messages 	85
scalar Network400.node300 	discovery_latency 	972
scalar Network400.node300 	number_of_desired_resources 	20
scalar Network400.node300 	query_homogenity_rate 	33.333333333333
scalar Network400.node300 	qrecord_time 	48954.371411322
scalar Network400.node300 	discovery_resolution_rate 	100
scalar Network400.node380 	rate_of_requesters 	1
scalar Network400.node380 	number_of_resources 	22000
scalar Network400.node380 	time_period 	9
scalar Network400.node380 	number_of_messages 	53
scalar Network400.node380 	discovery_latency 	444
scalar Network400.node380 	number_of_desired_resources 	20
scalar Network400.node380 	query_homogenity_rate 	33.333333333333
scalar Network400.node380 	qrecord_time 	49751.947338644
scalar Network400.node380 	discovery_resolution_rate 	100
scalar Network400.node110 	rate_of_requesters 	1
scalar Network400.node110 	number_of_resources 	22000
scalar Network400.node110 	time_period 	10
scalar Network400.node110 	number_of_messages 	45
scalar Network400.node110 	discovery_latency 	611.99999999999
scalar Network400.node110 	number_of_desired_resources 	20
scalar Network400.node110 	query_homogenity_rate 	33.333333333333
scalar Network400.node110 	qrecord_time 	50182.012615579
scalar Network400.node110 	discovery_resolution_rate 	100
scalar Network400.node300 	rate_of_requesters 	1
scalar Network400.node300 	number_of_resources 	22000
scalar Network400.node300 	time_period 	10
scalar Network400.node300 	number_of_messages 	43
scalar Network400.node300 	discovery_latency 	360
scalar Network400.node300 	number_of_desired_resources 	20
scalar Network400.node300 	query_homogenity_rate 	33.333333333333
scalar Network400.node300 	qrecord_time 	50234.2377322
scalar Network400.node300 	discovery_resolution_rate 	100
scalar Network400.node100 	rate_of_requesters 	1
scalar Network400.node100 	number_of_resources 	22000
scalar Network400.node100 	time_period 	9
scalar Network400.node100 	number_of_messages 	23
scalar Network400.node100 	discovery_latency 	252
scalar Network400.node100 	number_of_desired_resources 	20
scalar Network400.node100 	query_homogenity_rate 	33.333333333333
scalar Network400.node100 	qrecord_time 	50550.47287357
scalar Network400.node100 	discovery_resolution_rate 	100
scalar Network400.node320 	rate_of_requesters 	1
scalar Network400.node320 	number_of_resources 	22000
scalar Network400.node320 	time_period 	8
scalar Network400.node320 	number_of_messages 	56
scalar Network400.node320 	discovery_latency 	528.00000000001
scalar Network400.node320 	number_of_desired_resources 	20
scalar Network400.node320 	query_homogenity_rate 	33.333333333333
scalar Network400.node320 	qrecord_time 	50705.337521727
scalar Network400.node320 	discovery_resolution_rate 	100
scalar Network400.node100 	rate_of_requesters 	1
scalar Network400.node100 	number_of_resources 	22000
scalar Network400.node100 	time_period 	10
scalar Network400.node100 	number_of_messages 	53
scalar Network400.node100 	discovery_latency 	588
scalar Network400.node100 	number_of_desired_resources 	20
scalar Network400.node100 	query_homogenity_rate 	33.333333333333
scalar Network400.node100 	qrecord_time 	51281.737513719
scalar Network400.node100 	discovery_resolution_rate 	100
scalar Network400.node320 	rate_of_requesters 	1
scalar Network400.node320 	number_of_resources 	22000
scalar Network400.node320 	time_period 	9
scalar Network400.node320 	number_of_messages 	57
scalar Network400.node320 	discovery_latency 	852
scalar Network400.node320 	number_of_desired_resources 	20
scalar Network400.node320 	query_homogenity_rate 	33.333333333333
scalar Network400.node320 	qrecord_time 	52056.75566558
scalar Network400.node320 	discovery_resolution_rate 	100
scalar Network400.node50 	rate_of_requesters 	1
scalar Network400.node50 	number_of_resources 	22000
scalar Network400.node50 	time_period 	10
scalar Network400.node50 	number_of_messages 	72
scalar Network400.node50 	discovery_latency 	780
scalar Network400.node50 	number_of_desired_resources 	20
scalar Network400.node50 	query_homogenity_rate 	33.333333333333
scalar Network400.node50 	qrecord_time 	52643.365401325
scalar Network400.node50 	discovery_resolution_rate 	100
scalar Network400.node390 	rate_of_requesters 	1
scalar Network400.node390 	number_of_resources 	22000
scalar Network400.node390 	time_period 	9
scalar Network400.node390 	number_of_messages 	37
scalar Network400.node390 	discovery_latency 	372
scalar Network400.node390 	number_of_desired_resources 	20
scalar Network400.node390 	query_homogenity_rate 	33.333333333333
scalar Network400.node390 	qrecord_time 	54836.329547935
scalar Network400.node390 	discovery_resolution_rate 	100
scalar Network400.node190 	rate_of_requesters 	1
scalar Network400.node190 	number_of_resources 	22000
scalar Network400.node190 	time_period 	9
scalar Network400.node190 	number_of_messages 	102
scalar Network400.node190 	discovery_latency 	960
scalar Network400.node190 	number_of_desired_resources 	20
scalar Network400.node190 	query_homogenity_rate 	33.333333333333
scalar Network400.node190 	qrecord_time 	56110.518660083
scalar Network400.node190 	discovery_resolution_rate 	100
scalar Network400.node320 	rate_of_requesters 	1
scalar Network400.node320 	number_of_resources 	22000
scalar Network400.node320 	time_period 	10
scalar Network400.node320 	number_of_messages 	88
scalar Network400.node320 	discovery_latency 	983.99999999999
scalar Network400.node320 	number_of_desired_resources 	20
scalar Network400.node320 	query_homogenity_rate 	33.333333333333
scalar Network400.node320 	qrecord_time 	56346.656791467
scalar Network400.node320 	discovery_resolution_rate 	100
scalar Network400.node190 	rate_of_requesters 	1
scalar Network400.node190 	number_of_resources 	22000
scalar Network400.node190 	time_period 	10
scalar Network400.node190 	number_of_messages 	85
scalar Network400.node190 	discovery_latency 	1488
scalar Network400.node190 	number_of_desired_resources 	20
scalar Network400.node190 	query_homogenity_rate 	33.333333333333
scalar Network400.node190 	qrecord_time 	57272.929220018
scalar Network400.node190 	discovery_resolution_rate 	100
scalar Network400.node130 	rate_of_requesters 	1
scalar Network400.node130 	number_of_resources 	22000
scalar Network400.node130 	time_period 	10
scalar Network400.node130 	number_of_messages 	94
scalar Network400.node130 	discovery_latency 	1236
scalar Network400.node130 	number_of_desired_resources 	20
scalar Network400.node130 	query_homogenity_rate 	33.333333333333
scalar Network400.node130 	qrecord_time 	57687.027319002
scalar Network400.node130 	discovery_resolution_rate 	100
scalar Network400.node390 	rate_of_requesters 	1
scalar Network400.node390 	number_of_resources 	22000
scalar Network400.node390 	time_period 	10
scalar Network400.node390 	number_of_messages 	79
scalar Network400.node390 	discovery_latency 	888
scalar Network400.node390 	number_of_desired_resources 	20
scalar Network400.node390 	query_homogenity_rate 	33.333333333333
scalar Network400.node390 	qrecord_time 	60529.852721358
scalar Network400.node390 	discovery_resolution_rate 	100
scalar Network400.node380 	rate_of_requesters 	1
scalar Network400.node380 	number_of_resources 	22000
scalar Network400.node380 	time_period 	10
scalar Network400.node380 	number_of_messages 	79
scalar Network400.node380 	discovery_latency 	924
scalar Network400.node380 	number_of_desired_resources 	20
scalar Network400.node380 	query_homogenity_rate 	33.333333333333
scalar Network400.node380 	qrecord_time 	60866.315329533
scalar Network400.node380 	discovery_resolution_rate 	100
