version 2
run net500-2-20150624-22:13:23-7513
attr as 1
attr configname net500
attr datetime 20150624-22:13:23
attr dnor 20
attr experiment net500
attr inifile omnetpp.ini
attr iterationvars "$rhdrq=3, $dnor=20, $as=1"
attr iterationvars2 "$rhdrq=3, $dnor=20, $as=1, $repetition=2"
attr measurement "$rhdrq=3, $dnor=20, $as=1"
attr network Network500
attr processid 7513
attr repetition 2
attr replication #2
attr resultdir results
attr rhdrq 3
attr runnumber 2
attr seedset 2

scalar . 	as 	1
scalar . 	dnor 	20
scalar . 	rhdrq 	3
scalar Network500.node210 	rate_of_requesters 	1
scalar Network500.node210 	number_of_resources 	27500
scalar Network500.node210 	time_period 	1
scalar Network500.node210 	number_of_messages 	21
scalar Network500.node210 	discovery_latency 	2784
scalar Network500.node210 	number_of_desired_resources 	20
scalar Network500.node210 	query_homogenity_rate 	33.333333333333
scalar Network500.node210 	qrecord_time 	7498
scalar Network500.node210 	discovery_resolution_rate 	33.333333333333
scalar Network500.node250 	rate_of_requesters 	1
scalar Network500.node250 	number_of_resources 	27500
scalar Network500.node250 	time_period 	1
scalar Network500.node250 	number_of_messages 	4
scalar Network500.node250 	discovery_latency 	2844
scalar Network500.node250 	number_of_desired_resources 	20
scalar Network500.node250 	query_homogenity_rate 	33.333333333333
scalar Network500.node250 	qrecord_time 	7534
scalar Network500.node250 	discovery_resolution_rate 	33.333333333333
scalar Network500.node100 	rate_of_requesters 	1
scalar Network500.node100 	number_of_resources 	27500
scalar Network500.node100 	time_period 	1
scalar Network500.node100 	number_of_messages 	22
scalar Network500.node100 	discovery_latency 	2844
scalar Network500.node100 	number_of_desired_resources 	20
scalar Network500.node100 	query_homogenity_rate 	33.333333333333
scalar Network500.node100 	qrecord_time 	7552
scalar Network500.node100 	discovery_resolution_rate 	33.333333333333
scalar Network500.node340 	rate_of_requesters 	1
scalar Network500.node340 	number_of_resources 	27500
scalar Network500.node340 	time_period 	1
scalar Network500.node340 	number_of_messages 	54
scalar Network500.node340 	discovery_latency 	2856
scalar Network500.node340 	number_of_desired_resources 	20
scalar Network500.node340 	query_homogenity_rate 	33.333333333333
scalar Network500.node340 	qrecord_time 	7552
scalar Network500.node340 	discovery_resolution_rate 	66.666666666667
scalar Network500.node20 	rate_of_requesters 	1
scalar Network500.node20 	number_of_resources 	27500
scalar Network500.node20 	time_period 	1
scalar Network500.node20 	number_of_messages 	5
scalar Network500.node20 	discovery_latency 	2820
scalar Network500.node20 	number_of_desired_resources 	20
scalar Network500.node20 	query_homogenity_rate 	33.333333333333
scalar Network500.node20 	qrecord_time 	7582
scalar Network500.node20 	discovery_resolution_rate 	33.333333333333
scalar Network500.node410 	rate_of_requesters 	1
scalar Network500.node410 	number_of_resources 	27500
scalar Network500.node410 	time_period 	1
scalar Network500.node410 	number_of_messages 	53
scalar Network500.node410 	discovery_latency 	2892
scalar Network500.node410 	number_of_desired_resources 	20
scalar Network500.node410 	query_homogenity_rate 	33.333333333333
scalar Network500.node410 	qrecord_time 	7582
scalar Network500.node410 	discovery_resolution_rate 	66.666666666667
scalar Network500.node350 	rate_of_requesters 	1
scalar Network500.node350 	number_of_resources 	27500
scalar Network500.node350 	time_period 	2
scalar Network500.node350 	number_of_messages 	21
scalar Network500.node350 	discovery_latency 	2844
scalar Network500.node350 	number_of_desired_resources 	20
scalar Network500.node350 	query_homogenity_rate 	33.333333333333
scalar Network500.node350 	qrecord_time 	7613.818492804
scalar Network500.node350 	discovery_resolution_rate 	66.666666666667
scalar Network500.node230 	rate_of_requesters 	1
scalar Network500.node230 	number_of_resources 	27500
scalar Network500.node230 	time_period 	1
scalar Network500.node230 	number_of_messages 	38
scalar Network500.node230 	discovery_latency 	2952
scalar Network500.node230 	number_of_desired_resources 	20
scalar Network500.node230 	query_homogenity_rate 	33.333333333333
scalar Network500.node230 	qrecord_time 	7624
scalar Network500.node230 	discovery_resolution_rate 	33.333333333333
scalar Network500.node490 	rate_of_requesters 	1
scalar Network500.node490 	number_of_resources 	27500
scalar Network500.node490 	time_period 	1
scalar Network500.node490 	number_of_messages 	21
scalar Network500.node490 	discovery_latency 	2832
scalar Network500.node490 	number_of_desired_resources 	20
scalar Network500.node490 	query_homogenity_rate 	33.333333333333
scalar Network500.node490 	qrecord_time 	7624
scalar Network500.node490 	discovery_resolution_rate 	33.333333333333
scalar Network500.node150 	rate_of_requesters 	1
scalar Network500.node150 	number_of_resources 	27500
scalar Network500.node150 	time_period 	1
scalar Network500.node150 	number_of_messages 	32
scalar Network500.node150 	discovery_latency 	2940
scalar Network500.node150 	number_of_desired_resources 	20
scalar Network500.node150 	query_homogenity_rate 	33.333333333333
scalar Network500.node150 	qrecord_time 	7648
scalar Network500.node150 	discovery_resolution_rate 	33.333333333333
scalar Network500.node10 	rate_of_requesters 	1
scalar Network500.node10 	number_of_resources 	27500
scalar Network500.node10 	time_period 	1
scalar Network500.node10 	number_of_messages 	38
scalar Network500.node10 	discovery_latency 	2940
scalar Network500.node10 	number_of_desired_resources 	20
scalar Network500.node10 	query_homogenity_rate 	33.333333333333
scalar Network500.node10 	qrecord_time 	7648
scalar Network500.node10 	discovery_resolution_rate 	33.333333333333
scalar Network500.node470 	rate_of_requesters 	1
scalar Network500.node470 	number_of_resources 	27500
scalar Network500.node470 	time_period 	1
scalar Network500.node470 	number_of_messages 	38
scalar Network500.node470 	discovery_latency 	2952
scalar Network500.node470 	number_of_desired_resources 	20
scalar Network500.node470 	query_homogenity_rate 	33.333333333333
scalar Network500.node470 	qrecord_time 	7660
scalar Network500.node470 	discovery_resolution_rate 	66.666666666667
scalar Network500.node70 	rate_of_requesters 	1
scalar Network500.node70 	number_of_resources 	27500
scalar Network500.node70 	time_period 	1
scalar Network500.node70 	number_of_messages 	139
scalar Network500.node70 	discovery_latency 	3000
scalar Network500.node70 	number_of_desired_resources 	20
scalar Network500.node70 	query_homogenity_rate 	33.333333333333
scalar Network500.node70 	qrecord_time 	7666
scalar Network500.node70 	discovery_resolution_rate 	50
scalar Network500.node110 	rate_of_requesters 	1
scalar Network500.node110 	number_of_resources 	27500
scalar Network500.node110 	time_period 	1
scalar Network500.node110 	number_of_messages 	16
scalar Network500.node110 	discovery_latency 	3000
scalar Network500.node110 	number_of_desired_resources 	20
scalar Network500.node110 	query_homogenity_rate 	33.333333333333
scalar Network500.node110 	qrecord_time 	7666
scalar Network500.node110 	discovery_resolution_rate 	33.333333333333
scalar Network500.node450 	rate_of_requesters 	1
scalar Network500.node450 	number_of_resources 	27500
scalar Network500.node450 	time_period 	1
scalar Network500.node450 	number_of_messages 	8
scalar Network500.node450 	discovery_latency 	2904
scalar Network500.node450 	number_of_desired_resources 	20
scalar Network500.node450 	query_homogenity_rate 	33.333333333333
scalar Network500.node450 	qrecord_time 	7678
scalar Network500.node450 	discovery_resolution_rate 	33.333333333333
scalar Network500.node310 	rate_of_requesters 	1
scalar Network500.node310 	number_of_resources 	27500
scalar Network500.node310 	time_period 	1
scalar Network500.node310 	number_of_messages 	5
scalar Network500.node310 	discovery_latency 	2964
scalar Network500.node310 	number_of_desired_resources 	20
scalar Network500.node310 	query_homogenity_rate 	33.333333333333
scalar Network500.node310 	qrecord_time 	7678
scalar Network500.node310 	discovery_resolution_rate 	33.333333333333
scalar Network500.node180 	rate_of_requesters 	1
scalar Network500.node180 	number_of_resources 	27500
scalar Network500.node180 	time_period 	1
scalar Network500.node180 	number_of_messages 	81
scalar Network500.node180 	discovery_latency 	2952
scalar Network500.node180 	number_of_desired_resources 	20
scalar Network500.node180 	query_homogenity_rate 	33.333333333333
scalar Network500.node180 	qrecord_time 	7684
scalar Network500.node180 	discovery_resolution_rate 	33.333333333333
scalar Network500.node130 	rate_of_requesters 	1
scalar Network500.node130 	number_of_resources 	27500
scalar Network500.node130 	time_period 	1
scalar Network500.node130 	number_of_messages 	12
scalar Network500.node130 	discovery_latency 	2988
scalar Network500.node130 	number_of_desired_resources 	20
scalar Network500.node130 	query_homogenity_rate 	33.333333333333
scalar Network500.node130 	qrecord_time 	7684
scalar Network500.node130 	discovery_resolution_rate 	33.333333333333
scalar Network500.node60 	rate_of_requesters 	1
scalar Network500.node60 	number_of_resources 	27500
scalar Network500.node60 	time_period 	1
scalar Network500.node60 	number_of_messages 	22
scalar Network500.node60 	discovery_latency 	2964
scalar Network500.node60 	number_of_desired_resources 	20
scalar Network500.node60 	query_homogenity_rate 	33.333333333333
scalar Network500.node60 	qrecord_time 	7690
scalar Network500.node60 	discovery_resolution_rate 	33.333333333333
scalar Network500.node190 	rate_of_requesters 	1
scalar Network500.node190 	number_of_resources 	27500
scalar Network500.node190 	time_period 	1
scalar Network500.node190 	number_of_messages 	10
scalar Network500.node190 	discovery_latency 	2940
scalar Network500.node190 	number_of_desired_resources 	20
scalar Network500.node190 	query_homogenity_rate 	33.333333333333
scalar Network500.node190 	qrecord_time 	7696
scalar Network500.node190 	discovery_resolution_rate 	33.333333333333
scalar Network500.node380 	rate_of_requesters 	1
scalar Network500.node380 	number_of_resources 	27500
scalar Network500.node380 	time_period 	1
scalar Network500.node380 	number_of_messages 	18
scalar Network500.node380 	discovery_latency 	3012
scalar Network500.node380 	number_of_desired_resources 	20
scalar Network500.node380 	query_homogenity_rate 	33.333333333333
scalar Network500.node380 	qrecord_time 	7696
scalar Network500.node380 	discovery_resolution_rate 	33.333333333333
scalar Network500.node120 	rate_of_requesters 	1
scalar Network500.node120 	number_of_resources 	27500
scalar Network500.node120 	time_period 	1
scalar Network500.node120 	number_of_messages 	16
scalar Network500.node120 	discovery_latency 	3036
scalar Network500.node120 	number_of_desired_resources 	20
scalar Network500.node120 	query_homogenity_rate 	33.333333333333
scalar Network500.node120 	qrecord_time 	7702
scalar Network500.node120 	discovery_resolution_rate 	33.333333333333
scalar Network500.node140 	rate_of_requesters 	1
scalar Network500.node140 	number_of_resources 	27500
scalar Network500.node140 	time_period 	1
scalar Network500.node140 	number_of_messages 	16
scalar Network500.node140 	discovery_latency 	3036
scalar Network500.node140 	number_of_desired_resources 	20
scalar Network500.node140 	query_homogenity_rate 	33.333333333333
scalar Network500.node140 	qrecord_time 	7702
scalar Network500.node140 	discovery_resolution_rate 	33.333333333333
scalar Network500.node390 	rate_of_requesters 	1
scalar Network500.node390 	number_of_resources 	27500
scalar Network500.node390 	time_period 	1
scalar Network500.node390 	number_of_messages 	21
scalar Network500.node390 	discovery_latency 	2988
scalar Network500.node390 	number_of_desired_resources 	20
scalar Network500.node390 	query_homogenity_rate 	33.333333333333
scalar Network500.node390 	qrecord_time 	7708
scalar Network500.node390 	discovery_resolution_rate 	33.333333333333
scalar Network500.node360 	rate_of_requesters 	1
scalar Network500.node360 	number_of_resources 	27500
scalar Network500.node360 	time_period 	1
scalar Network500.node360 	number_of_messages 	4
scalar Network500.node360 	discovery_latency 	2988
scalar Network500.node360 	number_of_desired_resources 	20
scalar Network500.node360 	query_homogenity_rate 	33.333333333333
scalar Network500.node360 	qrecord_time 	7714
scalar Network500.node360 	discovery_resolution_rate 	33.333333333333
scalar Network500.node480 	rate_of_requesters 	1
scalar Network500.node480 	number_of_resources 	27500
scalar Network500.node480 	time_period 	1
scalar Network500.node480 	number_of_messages 	14
scalar Network500.node480 	discovery_latency 	2940
scalar Network500.node480 	number_of_desired_resources 	20
scalar Network500.node480 	query_homogenity_rate 	33.333333333333
scalar Network500.node480 	qrecord_time 	7714
scalar Network500.node480 	discovery_resolution_rate 	33.333333333333
scalar Network500.node160 	rate_of_requesters 	1
scalar Network500.node160 	number_of_resources 	27500
scalar Network500.node160 	time_period 	1
scalar Network500.node160 	number_of_messages 	19
scalar Network500.node160 	discovery_latency 	2940
scalar Network500.node160 	number_of_desired_resources 	20
scalar Network500.node160 	query_homogenity_rate 	33.333333333333
scalar Network500.node160 	qrecord_time 	7714
scalar Network500.node160 	discovery_resolution_rate 	66.666666666667
scalar Network500.node220 	rate_of_requesters 	1
scalar Network500.node220 	number_of_resources 	27500
scalar Network500.node220 	time_period 	1
scalar Network500.node220 	number_of_messages 	19
scalar Network500.node220 	discovery_latency 	2940
scalar Network500.node220 	number_of_desired_resources 	20
scalar Network500.node220 	query_homogenity_rate 	33.333333333333
scalar Network500.node220 	qrecord_time 	7714
scalar Network500.node220 	discovery_resolution_rate 	66.666666666667
scalar Network500.node240 	rate_of_requesters 	1
scalar Network500.node240 	number_of_resources 	27500
scalar Network500.node240 	time_period 	2
scalar Network500.node240 	number_of_messages 	65
scalar Network500.node240 	discovery_latency 	2976
scalar Network500.node240 	number_of_desired_resources 	20
scalar Network500.node240 	query_homogenity_rate 	33.333333333333
scalar Network500.node240 	qrecord_time 	7714.857772869
scalar Network500.node240 	discovery_resolution_rate 	33.333333333333
scalar Network500.node40 	rate_of_requesters 	1
scalar Network500.node40 	number_of_resources 	27500
scalar Network500.node40 	time_period 	1
scalar Network500.node40 	number_of_messages 	9
scalar Network500.node40 	discovery_latency 	3000
scalar Network500.node40 	number_of_desired_resources 	20
scalar Network500.node40 	query_homogenity_rate 	33.333333333333
scalar Network500.node40 	qrecord_time 	7738
scalar Network500.node40 	discovery_resolution_rate 	33.333333333333
scalar Network500.node400 	rate_of_requesters 	1
scalar Network500.node400 	number_of_resources 	27500
scalar Network500.node400 	time_period 	1
scalar Network500.node400 	number_of_messages 	45
scalar Network500.node400 	discovery_latency 	3024
scalar Network500.node400 	number_of_desired_resources 	20
scalar Network500.node400 	query_homogenity_rate 	33.333333333333
scalar Network500.node400 	qrecord_time 	7738
scalar Network500.node400 	discovery_resolution_rate 	33.333333333333
scalar Network500.node300 	rate_of_requesters 	1
scalar Network500.node300 	number_of_resources 	27500
scalar Network500.node300 	time_period 	1
scalar Network500.node300 	number_of_messages 	72
scalar Network500.node300 	discovery_latency 	2988
scalar Network500.node300 	number_of_desired_resources 	20
scalar Network500.node300 	query_homogenity_rate 	33.333333333333
scalar Network500.node300 	qrecord_time 	7744
scalar Network500.node300 	discovery_resolution_rate 	33.333333333333
scalar Network500.node80 	rate_of_requesters 	1
scalar Network500.node80 	number_of_resources 	27500
scalar Network500.node80 	time_period 	1
scalar Network500.node80 	number_of_messages 	3
scalar Network500.node80 	discovery_latency 	3036
scalar Network500.node80 	number_of_desired_resources 	20
scalar Network500.node80 	query_homogenity_rate 	33.333333333333
scalar Network500.node80 	qrecord_time 	7756
scalar Network500.node80 	discovery_resolution_rate 	33.333333333333
scalar Network500.node280 	rate_of_requesters 	1
scalar Network500.node280 	number_of_resources 	27500
scalar Network500.node280 	time_period 	1
scalar Network500.node280 	number_of_messages 	5
scalar Network500.node280 	discovery_latency 	3012
scalar Network500.node280 	number_of_desired_resources 	20
scalar Network500.node280 	query_homogenity_rate 	33.333333333333
scalar Network500.node280 	qrecord_time 	7774
scalar Network500.node280 	discovery_resolution_rate 	33.333333333333
scalar Network500.node320 	rate_of_requesters 	1
scalar Network500.node320 	number_of_resources 	27500
scalar Network500.node320 	time_period 	1
scalar Network500.node320 	number_of_messages 	6
scalar Network500.node320 	discovery_latency 	3012
scalar Network500.node320 	number_of_desired_resources 	20
scalar Network500.node320 	query_homogenity_rate 	33.333333333333
scalar Network500.node320 	qrecord_time 	7792
scalar Network500.node320 	discovery_resolution_rate 	33.333333333333
scalar Network500.node370 	rate_of_requesters 	1
scalar Network500.node370 	number_of_resources 	27500
scalar Network500.node370 	time_period 	1
scalar Network500.node370 	number_of_messages 	6
scalar Network500.node370 	discovery_latency 	3000
scalar Network500.node370 	number_of_desired_resources 	20
scalar Network500.node370 	query_homogenity_rate 	33.333333333333
scalar Network500.node370 	qrecord_time 	7798
scalar Network500.node370 	discovery_resolution_rate 	33.333333333333
scalar Network500.node0 	rate_of_requesters 	1
scalar Network500.node0 	number_of_resources 	27500
scalar Network500.node0 	time_period 	1
scalar Network500.node0 	number_of_messages 	8
scalar Network500.node0 	discovery_latency 	3060
scalar Network500.node0 	number_of_desired_resources 	20
scalar Network500.node0 	query_homogenity_rate 	33.333333333333
scalar Network500.node0 	qrecord_time 	7804
scalar Network500.node0 	discovery_resolution_rate 	33.333333333333
scalar Network500.node330 	rate_of_requesters 	1
scalar Network500.node330 	number_of_resources 	27500
scalar Network500.node330 	time_period 	1
scalar Network500.node330 	number_of_messages 	10
scalar Network500.node330 	discovery_latency 	3072
scalar Network500.node330 	number_of_desired_resources 	20
scalar Network500.node330 	query_homogenity_rate 	33.333333333333
scalar Network500.node330 	qrecord_time 	7828
scalar Network500.node330 	discovery_resolution_rate 	33.333333333333
scalar Network500.node240 	rate_of_requesters 	1
scalar Network500.node240 	number_of_resources 	27500
scalar Network500.node240 	time_period 	1
scalar Network500.node240 	number_of_messages 	92
scalar Network500.node240 	discovery_latency 	3168
scalar Network500.node240 	number_of_desired_resources 	20
scalar Network500.node240 	query_homogenity_rate 	33.333333333333
scalar Network500.node240 	qrecord_time 	7834
scalar Network500.node240 	discovery_resolution_rate 	33.333333333333
scalar Network500.node30 	rate_of_requesters 	1
scalar Network500.node30 	number_of_resources 	27500
scalar Network500.node30 	time_period 	1
scalar Network500.node30 	number_of_messages 	10
scalar Network500.node30 	discovery_latency 	3096
scalar Network500.node30 	number_of_desired_resources 	20
scalar Network500.node30 	query_homogenity_rate 	33.333333333333
scalar Network500.node30 	qrecord_time 	7852
scalar Network500.node30 	discovery_resolution_rate 	33.333333333333
scalar Network500.node160 	rate_of_requesters 	1
scalar Network500.node160 	number_of_resources 	27500
scalar Network500.node160 	time_period 	2
scalar Network500.node160 	number_of_messages 	72
scalar Network500.node160 	discovery_latency 	3060
scalar Network500.node160 	number_of_desired_resources 	20
scalar Network500.node160 	query_homogenity_rate 	33.333333333333
scalar Network500.node160 	qrecord_time 	7862.525653828
scalar Network500.node160 	discovery_resolution_rate 	33.333333333333
scalar Network500.node90 	rate_of_requesters 	1
scalar Network500.node90 	number_of_resources 	27500
scalar Network500.node90 	time_period 	1
scalar Network500.node90 	number_of_messages 	5
scalar Network500.node90 	discovery_latency 	3120
scalar Network500.node90 	number_of_desired_resources 	20
scalar Network500.node90 	query_homogenity_rate 	33.333333333333
scalar Network500.node90 	qrecord_time 	7882
scalar Network500.node90 	discovery_resolution_rate 	33.333333333333
scalar Network500.node480 	rate_of_requesters 	1
scalar Network500.node480 	number_of_resources 	27500
scalar Network500.node480 	time_period 	2
scalar Network500.node480 	number_of_messages 	28
scalar Network500.node480 	discovery_latency 	3060
scalar Network500.node480 	number_of_desired_resources 	20
scalar Network500.node480 	query_homogenity_rate 	33.333333333333
scalar Network500.node480 	qrecord_time 	8414.395324837
scalar Network500.node480 	discovery_resolution_rate 	33.333333333333
scalar Network500.node270 	rate_of_requesters 	1
scalar Network500.node270 	number_of_resources 	27500
scalar Network500.node270 	time_period 	1
scalar Network500.node270 	number_of_messages 	16
scalar Network500.node270 	discovery_latency 	3864
scalar Network500.node270 	number_of_desired_resources 	20
scalar Network500.node270 	query_homogenity_rate 	33.333333333333
scalar Network500.node270 	qrecord_time 	8530
scalar Network500.node270 	discovery_resolution_rate 	33.333333333333
scalar Network500.node430 	rate_of_requesters 	1
scalar Network500.node430 	number_of_resources 	27500
scalar Network500.node430 	time_period 	1
scalar Network500.node430 	number_of_messages 	2
scalar Network500.node430 	discovery_latency 	3828
scalar Network500.node430 	number_of_desired_resources 	20
scalar Network500.node430 	query_homogenity_rate 	33.333333333333
scalar Network500.node430 	qrecord_time 	8536
scalar Network500.node430 	discovery_resolution_rate 	0
scalar Network500.node440 	rate_of_requesters 	1
scalar Network500.node440 	number_of_resources 	27500
scalar Network500.node440 	time_period 	2
scalar Network500.node440 	number_of_messages 	0
scalar Network500.node440 	discovery_latency 	3828
scalar Network500.node440 	number_of_desired_resources 	20
scalar Network500.node440 	query_homogenity_rate 	33.333333333333
scalar Network500.node440 	qrecord_time 	8552.776917539
scalar Network500.node440 	discovery_resolution_rate 	0
scalar Network500.node50 	rate_of_requesters 	1
scalar Network500.node50 	number_of_resources 	27500
scalar Network500.node50 	time_period 	1
scalar Network500.node50 	number_of_messages 	0
scalar Network500.node50 	discovery_latency 	3864
scalar Network500.node50 	number_of_desired_resources 	20
scalar Network500.node50 	query_homogenity_rate 	33.333333333333
scalar Network500.node50 	qrecord_time 	8608
scalar Network500.node50 	discovery_resolution_rate 	0
scalar Network500.node440 	rate_of_requesters 	1
scalar Network500.node440 	number_of_resources 	27500
scalar Network500.node440 	time_period 	1
scalar Network500.node440 	number_of_messages 	0
scalar Network500.node440 	discovery_latency 	3960
scalar Network500.node440 	number_of_desired_resources 	20
scalar Network500.node440 	query_homogenity_rate 	33.333333333333
scalar Network500.node440 	qrecord_time 	8632
scalar Network500.node440 	discovery_resolution_rate 	0
scalar Network500.node260 	rate_of_requesters 	1
scalar Network500.node260 	number_of_resources 	27500
scalar Network500.node260 	time_period 	1
scalar Network500.node260 	number_of_messages 	2
scalar Network500.node260 	discovery_latency 	3912
scalar Network500.node260 	number_of_desired_resources 	20
scalar Network500.node260 	query_homogenity_rate 	33.333333333333
scalar Network500.node260 	qrecord_time 	8644
scalar Network500.node260 	discovery_resolution_rate 	0
scalar Network500.node200 	rate_of_requesters 	1
scalar Network500.node200 	number_of_resources 	27500
scalar Network500.node200 	time_period 	1
scalar Network500.node200 	number_of_messages 	211
scalar Network500.node200 	discovery_latency 	3900
scalar Network500.node200 	number_of_desired_resources 	20
scalar Network500.node200 	query_homogenity_rate 	33.333333333333
scalar Network500.node200 	qrecord_time 	8650
scalar Network500.node200 	discovery_resolution_rate 	50
scalar Network500.node170 	rate_of_requesters 	1
scalar Network500.node170 	number_of_resources 	27500
scalar Network500.node170 	time_period 	1
scalar Network500.node170 	number_of_messages 	2
scalar Network500.node170 	discovery_latency 	3924
scalar Network500.node170 	number_of_desired_resources 	20
scalar Network500.node170 	query_homogenity_rate 	33.333333333333
scalar Network500.node170 	qrecord_time 	8674
scalar Network500.node170 	discovery_resolution_rate 	0
scalar Network500.node420 	rate_of_requesters 	1
scalar Network500.node420 	number_of_resources 	27500
scalar Network500.node420 	time_period 	1
scalar Network500.node420 	number_of_messages 	194
scalar Network500.node420 	discovery_latency 	3972
scalar Network500.node420 	number_of_desired_resources 	20
scalar Network500.node420 	query_homogenity_rate 	33.333333333333
scalar Network500.node420 	qrecord_time 	8680
scalar Network500.node420 	discovery_resolution_rate 	16.666666666667
scalar Network500.node150 	rate_of_requesters 	1
scalar Network500.node150 	number_of_resources 	27500
scalar Network500.node150 	time_period 	2
scalar Network500.node150 	number_of_messages 	2
scalar Network500.node150 	discovery_latency 	3900
scalar Network500.node150 	number_of_desired_resources 	20
scalar Network500.node150 	query_homogenity_rate 	33.333333333333
scalar Network500.node150 	qrecord_time 	8719.594356477
scalar Network500.node150 	discovery_resolution_rate 	0
scalar Network500.node350 	rate_of_requesters 	1
scalar Network500.node350 	number_of_resources 	27500
scalar Network500.node350 	time_period 	1
scalar Network500.node350 	number_of_messages 	2
scalar Network500.node350 	discovery_latency 	3960
scalar Network500.node350 	number_of_desired_resources 	20
scalar Network500.node350 	query_homogenity_rate 	33.333333333333
scalar Network500.node350 	qrecord_time 	8728
scalar Network500.node350 	discovery_resolution_rate 	0
scalar Network500.node340 	rate_of_requesters 	1
scalar Network500.node340 	number_of_resources 	27500
scalar Network500.node340 	time_period 	2
scalar Network500.node340 	number_of_messages 	192
scalar Network500.node340 	discovery_latency 	3804
scalar Network500.node340 	number_of_desired_resources 	20
scalar Network500.node340 	query_homogenity_rate 	33.333333333333
scalar Network500.node340 	qrecord_time 	8772.916835421
scalar Network500.node340 	discovery_resolution_rate 	16.666666666667
scalar Network500.node460 	rate_of_requesters 	1
scalar Network500.node460 	number_of_resources 	27500
scalar Network500.node460 	time_period 	1
scalar Network500.node460 	number_of_messages 	194
scalar Network500.node460 	discovery_latency 	3984
scalar Network500.node460 	number_of_desired_resources 	20
scalar Network500.node460 	query_homogenity_rate 	33.333333333333
scalar Network500.node460 	qrecord_time 	8776
scalar Network500.node460 	discovery_resolution_rate 	16.666666666667
scalar Network500.node290 	rate_of_requesters 	1
scalar Network500.node290 	number_of_resources 	27500
scalar Network500.node290 	time_period 	1
scalar Network500.node290 	number_of_messages 	194
scalar Network500.node290 	discovery_latency 	4020
scalar Network500.node290 	number_of_desired_resources 	20
scalar Network500.node290 	query_homogenity_rate 	33.333333333333
scalar Network500.node290 	qrecord_time 	8776
scalar Network500.node290 	discovery_resolution_rate 	16.666666666667
scalar Network500.node330 	rate_of_requesters 	1
scalar Network500.node330 	number_of_resources 	27500
scalar Network500.node330 	time_period 	2
scalar Network500.node330 	number_of_messages 	9
scalar Network500.node330 	discovery_latency 	3072
scalar Network500.node330 	number_of_desired_resources 	20
scalar Network500.node330 	query_homogenity_rate 	33.333333333333
scalar Network500.node330 	qrecord_time 	8922.206691776
scalar Network500.node330 	discovery_resolution_rate 	33.333333333333
scalar Network500.node270 	rate_of_requesters 	1
scalar Network500.node270 	number_of_resources 	27500
scalar Network500.node270 	time_period 	2
scalar Network500.node270 	number_of_messages 	2
scalar Network500.node270 	discovery_latency 	3828
scalar Network500.node270 	number_of_desired_resources 	20
scalar Network500.node270 	query_homogenity_rate 	33.333333333333
scalar Network500.node270 	qrecord_time 	8928.239740477
scalar Network500.node270 	discovery_resolution_rate 	0
scalar Network500.node240 	rate_of_requesters 	1
scalar Network500.node240 	number_of_resources 	27500
scalar Network500.node240 	time_period 	3
scalar Network500.node240 	number_of_messages 	2
scalar Network500.node240 	discovery_latency 	3924
scalar Network500.node240 	number_of_desired_resources 	20
scalar Network500.node240 	query_homogenity_rate 	33.333333333333
scalar Network500.node240 	qrecord_time 	8969.395264633
scalar Network500.node240 	discovery_resolution_rate 	0
scalar Network500.node210 	rate_of_requesters 	1
scalar Network500.node210 	number_of_resources 	27500
scalar Network500.node210 	time_period 	2
scalar Network500.node210 	number_of_messages 	2
scalar Network500.node210 	discovery_latency 	3924
scalar Network500.node210 	number_of_desired_resources 	20
scalar Network500.node210 	query_homogenity_rate 	33.333333333333
scalar Network500.node210 	qrecord_time 	9254.380686062
scalar Network500.node210 	discovery_resolution_rate 	0
scalar Network500.node450 	rate_of_requesters 	1
scalar Network500.node450 	number_of_resources 	27500
scalar Network500.node450 	time_period 	2
scalar Network500.node450 	number_of_messages 	2
scalar Network500.node450 	discovery_latency 	4080
scalar Network500.node450 	number_of_desired_resources 	20
scalar Network500.node450 	query_homogenity_rate 	33.333333333333
scalar Network500.node450 	qrecord_time 	9348.141477353
scalar Network500.node450 	discovery_resolution_rate 	0
scalar Network500.node440 	rate_of_requesters 	1
scalar Network500.node440 	number_of_resources 	27500
scalar Network500.node440 	time_period 	3
scalar Network500.node440 	number_of_messages 	0
scalar Network500.node440 	discovery_latency 	3804
scalar Network500.node440 	number_of_desired_resources 	20
scalar Network500.node440 	query_homogenity_rate 	33.333333333333
scalar Network500.node440 	qrecord_time 	9370.023069725
scalar Network500.node440 	discovery_resolution_rate 	0
scalar Network500.node400 	rate_of_requesters 	1
scalar Network500.node400 	number_of_resources 	27500
scalar Network500.node400 	time_period 	2
scalar Network500.node400 	number_of_messages 	2
scalar Network500.node400 	discovery_latency 	3768
scalar Network500.node400 	number_of_desired_resources 	20
scalar Network500.node400 	query_homogenity_rate 	33.333333333333
scalar Network500.node400 	qrecord_time 	9376.233429956
scalar Network500.node400 	discovery_resolution_rate 	0
scalar Network500.node200 	rate_of_requesters 	1
scalar Network500.node200 	number_of_resources 	27500
scalar Network500.node200 	time_period 	2
scalar Network500.node200 	number_of_messages 	2
scalar Network500.node200 	discovery_latency 	3936
scalar Network500.node200 	number_of_desired_resources 	20
scalar Network500.node200 	query_homogenity_rate 	33.333333333333
scalar Network500.node200 	qrecord_time 	9412.501376308
scalar Network500.node200 	discovery_resolution_rate 	0
scalar Network500.node380 	rate_of_requesters 	1
scalar Network500.node380 	number_of_resources 	27500
scalar Network500.node380 	time_period 	2
scalar Network500.node380 	number_of_messages 	157
scalar Network500.node380 	discovery_latency 	3204
scalar Network500.node380 	number_of_desired_resources 	20
scalar Network500.node380 	query_homogenity_rate 	33.333333333333
scalar Network500.node380 	qrecord_time 	9666.966993791
scalar Network500.node380 	discovery_resolution_rate 	33.333333333333
scalar Network500.node370 	rate_of_requesters 	1
scalar Network500.node370 	number_of_resources 	27500
scalar Network500.node370 	time_period 	2
scalar Network500.node370 	number_of_messages 	2
scalar Network500.node370 	discovery_latency 	3948
scalar Network500.node370 	number_of_desired_resources 	20
scalar Network500.node370 	query_homogenity_rate 	33.333333333333
scalar Network500.node370 	qrecord_time 	9751.502900885
scalar Network500.node370 	discovery_resolution_rate 	0
scalar Network500.node70 	rate_of_requesters 	1
scalar Network500.node70 	number_of_resources 	27500
scalar Network500.node70 	time_period 	2
scalar Network500.node70 	number_of_messages 	2
scalar Network500.node70 	discovery_latency 	3768
scalar Network500.node70 	number_of_desired_resources 	20
scalar Network500.node70 	query_homogenity_rate 	33.333333333333
scalar Network500.node70 	qrecord_time 	9854.350999437
scalar Network500.node70 	discovery_resolution_rate 	0
scalar Network500.node80 	rate_of_requesters 	1
scalar Network500.node80 	number_of_resources 	27500
scalar Network500.node80 	time_period 	2
scalar Network500.node80 	number_of_messages 	0
scalar Network500.node80 	discovery_latency 	3804
scalar Network500.node80 	number_of_desired_resources 	20
scalar Network500.node80 	query_homogenity_rate 	33.333333333333
scalar Network500.node80 	qrecord_time 	9885.27681485
scalar Network500.node80 	discovery_resolution_rate 	0
scalar Network500.node170 	rate_of_requesters 	1
scalar Network500.node170 	number_of_resources 	27500
scalar Network500.node170 	time_period 	2
scalar Network500.node170 	number_of_messages 	2
scalar Network500.node170 	discovery_latency 	3612
scalar Network500.node170 	number_of_desired_resources 	20
scalar Network500.node170 	query_homogenity_rate 	33.333333333333
scalar Network500.node170 	qrecord_time 	9929.90318464
scalar Network500.node170 	discovery_resolution_rate 	0
scalar Network500.node240 	rate_of_requesters 	1
scalar Network500.node240 	number_of_resources 	27500
scalar Network500.node240 	time_period 	4
scalar Network500.node240 	number_of_messages 	2
scalar Network500.node240 	discovery_latency 	3912
scalar Network500.node240 	number_of_desired_resources 	20
scalar Network500.node240 	query_homogenity_rate 	33.333333333333
scalar Network500.node240 	qrecord_time 	10246.762192771
scalar Network500.node240 	discovery_resolution_rate 	0
scalar Network500.node180 	rate_of_requesters 	1
scalar Network500.node180 	number_of_resources 	27500
scalar Network500.node180 	time_period 	2
scalar Network500.node180 	number_of_messages 	2
scalar Network500.node180 	discovery_latency 	3780
scalar Network500.node180 	number_of_desired_resources 	20
scalar Network500.node180 	query_homogenity_rate 	33.333333333333
scalar Network500.node180 	qrecord_time 	10325.786504884
scalar Network500.node180 	discovery_resolution_rate 	0
scalar Network500.node300 	rate_of_requesters 	1
scalar Network500.node300 	number_of_resources 	27500
scalar Network500.node300 	time_period 	2
scalar Network500.node300 	number_of_messages 	2
scalar Network500.node300 	discovery_latency 	3960
scalar Network500.node300 	number_of_desired_resources 	20
scalar Network500.node300 	query_homogenity_rate 	33.333333333333
scalar Network500.node300 	qrecord_time 	10350.076437958
scalar Network500.node300 	discovery_resolution_rate 	0
scalar Network500.node200 	rate_of_requesters 	1
scalar Network500.node200 	number_of_resources 	27500
scalar Network500.node200 	time_period 	3
scalar Network500.node200 	number_of_messages 	2
scalar Network500.node200 	discovery_latency 	4032
scalar Network500.node200 	number_of_desired_resources 	20
scalar Network500.node200 	query_homogenity_rate 	33.333333333333
scalar Network500.node200 	qrecord_time 	10355.614612399
scalar Network500.node200 	discovery_resolution_rate 	0
scalar Network500.node460 	rate_of_requesters 	1
scalar Network500.node460 	number_of_resources 	27500
scalar Network500.node460 	time_period 	2
scalar Network500.node460 	number_of_messages 	2
scalar Network500.node460 	discovery_latency 	3792
scalar Network500.node460 	number_of_desired_resources 	20
scalar Network500.node460 	query_homogenity_rate 	33.333333333333
scalar Network500.node460 	qrecord_time 	10474.758400084
scalar Network500.node460 	discovery_resolution_rate 	0
scalar Network500.node210 	rate_of_requesters 	1
scalar Network500.node210 	number_of_resources 	27500
scalar Network500.node210 	time_period 	3
scalar Network500.node210 	number_of_messages 	146
scalar Network500.node210 	discovery_latency 	3000
scalar Network500.node210 	number_of_desired_resources 	20
scalar Network500.node210 	query_homogenity_rate 	33.333333333333
scalar Network500.node210 	qrecord_time 	10494.831413212
scalar Network500.node210 	discovery_resolution_rate 	33.333333333333
scalar Network500.node170 	rate_of_requesters 	1
scalar Network500.node170 	number_of_resources 	27500
scalar Network500.node170 	time_period 	3
scalar Network500.node170 	number_of_messages 	2
scalar Network500.node170 	discovery_latency 	3804
scalar Network500.node170 	number_of_desired_resources 	20
scalar Network500.node170 	query_homogenity_rate 	33.333333333333
scalar Network500.node170 	qrecord_time 	10524.674075099
scalar Network500.node170 	discovery_resolution_rate 	0
scalar Network500.node30 	rate_of_requesters 	1
scalar Network500.node30 	number_of_resources 	27500
scalar Network500.node30 	time_period 	2
scalar Network500.node30 	number_of_messages 	2
scalar Network500.node30 	discovery_latency 	4008
scalar Network500.node30 	number_of_desired_resources 	20
scalar Network500.node30 	query_homogenity_rate 	33.333333333333
scalar Network500.node30 	qrecord_time 	10602.030457912
scalar Network500.node30 	discovery_resolution_rate 	0
scalar Network500.node100 	rate_of_requesters 	1
scalar Network500.node100 	number_of_resources 	27500
scalar Network500.node100 	time_period 	2
scalar Network500.node100 	number_of_messages 	2
scalar Network500.node100 	discovery_latency 	3780
scalar Network500.node100 	number_of_desired_resources 	20
scalar Network500.node100 	query_homogenity_rate 	33.333333333333
scalar Network500.node100 	qrecord_time 	10607.297785598
scalar Network500.node100 	discovery_resolution_rate 	0
scalar Network500.node110 	rate_of_requesters 	1
scalar Network500.node110 	number_of_resources 	27500
scalar Network500.node110 	time_period 	2
scalar Network500.node110 	number_of_messages 	2
scalar Network500.node110 	discovery_latency 	3972
scalar Network500.node110 	number_of_desired_resources 	20
scalar Network500.node110 	query_homogenity_rate 	33.333333333333
scalar Network500.node110 	qrecord_time 	10762.106795096
scalar Network500.node110 	discovery_resolution_rate 	0
scalar Network500.node220 	rate_of_requesters 	1
scalar Network500.node220 	number_of_resources 	27500
scalar Network500.node220 	time_period 	2
scalar Network500.node220 	number_of_messages 	2
scalar Network500.node220 	discovery_latency 	3816
scalar Network500.node220 	number_of_desired_resources 	20
scalar Network500.node220 	query_homogenity_rate 	33.333333333333
scalar Network500.node220 	qrecord_time 	10847.683341243
scalar Network500.node220 	discovery_resolution_rate 	0
scalar Network500.node100 	rate_of_requesters 	1
scalar Network500.node100 	number_of_resources 	27500
scalar Network500.node100 	time_period 	3
scalar Network500.node100 	number_of_messages 	35
scalar Network500.node100 	discovery_latency 	2952
scalar Network500.node100 	number_of_desired_resources 	20
scalar Network500.node100 	query_homogenity_rate 	33.333333333333
scalar Network500.node100 	qrecord_time 	10859.815823058
scalar Network500.node100 	discovery_resolution_rate 	33.333333333333
scalar Network500.node180 	rate_of_requesters 	1
scalar Network500.node180 	number_of_resources 	27500
scalar Network500.node180 	time_period 	3
scalar Network500.node180 	number_of_messages 	126
scalar Network500.node180 	discovery_latency 	2904
scalar Network500.node180 	number_of_desired_resources 	20
scalar Network500.node180 	query_homogenity_rate 	33.333333333333
scalar Network500.node180 	qrecord_time 	11015.526719264
scalar Network500.node180 	discovery_resolution_rate 	33.333333333333
scalar Network500.node120 	rate_of_requesters 	1
scalar Network500.node120 	number_of_resources 	27500
scalar Network500.node120 	time_period 	2
scalar Network500.node120 	number_of_messages 	2
scalar Network500.node120 	discovery_latency 	3864
scalar Network500.node120 	number_of_desired_resources 	20
scalar Network500.node120 	query_homogenity_rate 	33.333333333333
scalar Network500.node120 	qrecord_time 	11053.494377349
scalar Network500.node120 	discovery_resolution_rate 	0
scalar Network500.node430 	rate_of_requesters 	1
scalar Network500.node430 	number_of_resources 	27500
scalar Network500.node430 	time_period 	2
scalar Network500.node430 	number_of_messages 	89
scalar Network500.node430 	discovery_latency 	2904
scalar Network500.node430 	number_of_desired_resources 	20
scalar Network500.node430 	query_homogenity_rate 	33.333333333333
scalar Network500.node430 	qrecord_time 	11076.582393197
scalar Network500.node430 	discovery_resolution_rate 	33.333333333333
scalar Network500.node60 	rate_of_requesters 	1
scalar Network500.node60 	number_of_resources 	27500
scalar Network500.node60 	time_period 	2
scalar Network500.node60 	number_of_messages 	2
scalar Network500.node60 	discovery_latency 	3948
scalar Network500.node60 	number_of_desired_resources 	20
scalar Network500.node60 	query_homogenity_rate 	33.333333333333
scalar Network500.node60 	qrecord_time 	11139.14959604
scalar Network500.node60 	discovery_resolution_rate 	0
scalar Network500.node10 	rate_of_requesters 	1
scalar Network500.node10 	number_of_resources 	27500
scalar Network500.node10 	time_period 	2
scalar Network500.node10 	number_of_messages 	2
scalar Network500.node10 	discovery_latency 	3816
scalar Network500.node10 	number_of_desired_resources 	20
scalar Network500.node10 	query_homogenity_rate 	33.333333333333
scalar Network500.node10 	qrecord_time 	11208.546615903
scalar Network500.node10 	discovery_resolution_rate 	0
scalar Network500.node360 	rate_of_requesters 	1
scalar Network500.node360 	number_of_resources 	27500
scalar Network500.node360 	time_period 	2
scalar Network500.node360 	number_of_messages 	2
scalar Network500.node360 	discovery_latency 	3852
scalar Network500.node360 	number_of_desired_resources 	20
scalar Network500.node360 	query_homogenity_rate 	33.333333333333
scalar Network500.node360 	qrecord_time 	11224.073840702
scalar Network500.node360 	discovery_resolution_rate 	0
scalar Network500.node250 	rate_of_requesters 	1
scalar Network500.node250 	number_of_resources 	27500
scalar Network500.node250 	time_period 	2
scalar Network500.node250 	number_of_messages 	2
scalar Network500.node250 	discovery_latency 	3912
scalar Network500.node250 	number_of_desired_resources 	20
scalar Network500.node250 	query_homogenity_rate 	33.333333333333
scalar Network500.node250 	qrecord_time 	11239.917006098
scalar Network500.node250 	discovery_resolution_rate 	0
scalar Network500.node420 	rate_of_requesters 	1
scalar Network500.node420 	number_of_resources 	27500
scalar Network500.node420 	time_period 	2
scalar Network500.node420 	number_of_messages 	2
scalar Network500.node420 	discovery_latency 	3876
scalar Network500.node420 	number_of_desired_resources 	20
scalar Network500.node420 	query_homogenity_rate 	33.333333333333
scalar Network500.node420 	qrecord_time 	11241.419758291
scalar Network500.node420 	discovery_resolution_rate 	0
scalar Network500.node20 	rate_of_requesters 	1
scalar Network500.node20 	number_of_resources 	27500
scalar Network500.node20 	time_period 	2
scalar Network500.node20 	number_of_messages 	118
scalar Network500.node20 	discovery_latency 	2748
scalar Network500.node20 	number_of_desired_resources 	20
scalar Network500.node20 	query_homogenity_rate 	33.333333333333
scalar Network500.node20 	qrecord_time 	11271.027747286
scalar Network500.node20 	discovery_resolution_rate 	66.666666666667
scalar Network500.node290 	rate_of_requesters 	1
scalar Network500.node290 	number_of_resources 	27500
scalar Network500.node290 	time_period 	3
scalar Network500.node290 	number_of_messages 	181
scalar Network500.node290 	discovery_latency 	3600
scalar Network500.node290 	number_of_desired_resources 	20
scalar Network500.node290 	query_homogenity_rate 	33.333333333333
scalar Network500.node290 	qrecord_time 	11295.554219446
scalar Network500.node290 	discovery_resolution_rate 	33.333333333333
scalar Network500.node120 	rate_of_requesters 	1
scalar Network500.node120 	number_of_resources 	27500
scalar Network500.node120 	time_period 	3
scalar Network500.node120 	number_of_messages 	2
scalar Network500.node120 	discovery_latency 	3984
scalar Network500.node120 	number_of_desired_resources 	20
scalar Network500.node120 	query_homogenity_rate 	33.333333333333
scalar Network500.node120 	qrecord_time 	11326.259301769
scalar Network500.node120 	discovery_resolution_rate 	0
scalar Network500.node120 	rate_of_requesters 	1
scalar Network500.node120 	number_of_resources 	27500
scalar Network500.node120 	time_period 	4
scalar Network500.node120 	number_of_messages 	2
scalar Network500.node120 	discovery_latency 	3792
scalar Network500.node120 	number_of_desired_resources 	20
scalar Network500.node120 	query_homogenity_rate 	33.333333333333
scalar Network500.node120 	qrecord_time 	11400.837063026
scalar Network500.node120 	discovery_resolution_rate 	0
scalar Network500.node290 	rate_of_requesters 	1
scalar Network500.node290 	number_of_resources 	27500
scalar Network500.node290 	time_period 	2
scalar Network500.node290 	number_of_messages 	2
scalar Network500.node290 	discovery_latency 	3972
scalar Network500.node290 	number_of_desired_resources 	20
scalar Network500.node290 	query_homogenity_rate 	33.333333333333
scalar Network500.node290 	qrecord_time 	11502.242079506
scalar Network500.node290 	discovery_resolution_rate 	0
scalar Network500.node370 	rate_of_requesters 	1
scalar Network500.node370 	number_of_resources 	27500
scalar Network500.node370 	time_period 	3
scalar Network500.node370 	number_of_messages 	2
scalar Network500.node370 	discovery_latency 	3984
scalar Network500.node370 	number_of_desired_resources 	20
scalar Network500.node370 	query_homogenity_rate 	33.333333333333
scalar Network500.node370 	qrecord_time 	11510.065309478
scalar Network500.node370 	discovery_resolution_rate 	0
scalar Network500.node60 	rate_of_requesters 	1
scalar Network500.node60 	number_of_resources 	27500
scalar Network500.node60 	time_period 	3
scalar Network500.node60 	number_of_messages 	128
scalar Network500.node60 	discovery_latency 	2832
scalar Network500.node60 	number_of_desired_resources 	20
scalar Network500.node60 	query_homogenity_rate 	33.333333333333
scalar Network500.node60 	qrecord_time 	11580.656067483
scalar Network500.node60 	discovery_resolution_rate 	33.333333333333
scalar Network500.node150 	rate_of_requesters 	1
scalar Network500.node150 	number_of_resources 	27500
scalar Network500.node150 	time_period 	3
scalar Network500.node150 	number_of_messages 	2
scalar Network500.node150 	discovery_latency 	3936
scalar Network500.node150 	number_of_desired_resources 	20
scalar Network500.node150 	query_homogenity_rate 	33.333333333333
scalar Network500.node150 	qrecord_time 	11613.275662345
scalar Network500.node150 	discovery_resolution_rate 	0
scalar Network500.node140 	rate_of_requesters 	1
scalar Network500.node140 	number_of_resources 	27500
scalar Network500.node140 	time_period 	2
scalar Network500.node140 	number_of_messages 	194
scalar Network500.node140 	discovery_latency 	3828
scalar Network500.node140 	number_of_desired_resources 	20
scalar Network500.node140 	query_homogenity_rate 	33.333333333333
scalar Network500.node140 	qrecord_time 	11652.360195164
scalar Network500.node140 	discovery_resolution_rate 	16.666666666667
scalar Network500.node80 	rate_of_requesters 	1
scalar Network500.node80 	number_of_resources 	27500
scalar Network500.node80 	time_period 	3
scalar Network500.node80 	number_of_messages 	116
scalar Network500.node80 	discovery_latency 	2820
scalar Network500.node80 	number_of_desired_resources 	20
scalar Network500.node80 	query_homogenity_rate 	33.333333333333
scalar Network500.node80 	qrecord_time 	11785.546515846
scalar Network500.node80 	discovery_resolution_rate 	66.666666666667
scalar Network500.node120 	rate_of_requesters 	1
scalar Network500.node120 	number_of_resources 	27500
scalar Network500.node120 	time_period 	5
scalar Network500.node120 	number_of_messages 	2
scalar Network500.node120 	discovery_latency 	3876
scalar Network500.node120 	number_of_desired_resources 	20
scalar Network500.node120 	query_homogenity_rate 	33.333333333333
scalar Network500.node120 	qrecord_time 	11932.524592977
scalar Network500.node120 	discovery_resolution_rate 	0
scalar Network500.node360 	rate_of_requesters 	1
scalar Network500.node360 	number_of_resources 	27500
scalar Network500.node360 	time_period 	4
scalar Network500.node360 	number_of_messages 	2
scalar Network500.node360 	discovery_latency 	3672
scalar Network500.node360 	number_of_desired_resources 	20
scalar Network500.node360 	query_homogenity_rate 	33.333333333333
scalar Network500.node360 	qrecord_time 	11952.204786905
scalar Network500.node360 	discovery_resolution_rate 	0
scalar Network500.node330 	rate_of_requesters 	1
scalar Network500.node330 	number_of_resources 	27500
scalar Network500.node330 	time_period 	3
scalar Network500.node330 	number_of_messages 	2
scalar Network500.node330 	discovery_latency 	3876
scalar Network500.node330 	number_of_desired_resources 	20
scalar Network500.node330 	query_homogenity_rate 	33.333333333333
scalar Network500.node330 	qrecord_time 	11968.960152911
scalar Network500.node330 	discovery_resolution_rate 	0
scalar Network500.node40 	rate_of_requesters 	1
scalar Network500.node40 	number_of_resources 	27500
scalar Network500.node40 	time_period 	2
scalar Network500.node40 	number_of_messages 	2
scalar Network500.node40 	discovery_latency 	3780
scalar Network500.node40 	number_of_desired_resources 	20
scalar Network500.node40 	query_homogenity_rate 	33.333333333333
scalar Network500.node40 	qrecord_time 	12062.939771777
scalar Network500.node40 	discovery_resolution_rate 	0
scalar Network500.node360 	rate_of_requesters 	1
scalar Network500.node360 	number_of_resources 	27500
scalar Network500.node360 	time_period 	3
scalar Network500.node360 	number_of_messages 	56
scalar Network500.node360 	discovery_latency 	4008
scalar Network500.node360 	number_of_desired_resources 	20
scalar Network500.node360 	query_homogenity_rate 	33.333333333333
scalar Network500.node360 	qrecord_time 	12100.878455579
scalar Network500.node360 	discovery_resolution_rate 	33.333333333333
scalar Network500.node280 	rate_of_requesters 	1
scalar Network500.node280 	number_of_resources 	27500
scalar Network500.node280 	time_period 	2
scalar Network500.node280 	number_of_messages 	194
scalar Network500.node280 	discovery_latency 	3948
scalar Network500.node280 	number_of_desired_resources 	20
scalar Network500.node280 	query_homogenity_rate 	33.333333333333
scalar Network500.node280 	qrecord_time 	12106.756257524
scalar Network500.node280 	discovery_resolution_rate 	16.666666666667
scalar Network500.node230 	rate_of_requesters 	1
scalar Network500.node230 	number_of_resources 	27500
scalar Network500.node230 	time_period 	2
scalar Network500.node230 	number_of_messages 	0
scalar Network500.node230 	discovery_latency 	3792
scalar Network500.node230 	number_of_desired_resources 	20
scalar Network500.node230 	query_homogenity_rate 	33.333333333333
scalar Network500.node230 	qrecord_time 	12110.280123956
scalar Network500.node230 	discovery_resolution_rate 	0
scalar Network500.node230 	rate_of_requesters 	1
scalar Network500.node230 	number_of_resources 	27500
scalar Network500.node230 	time_period 	3
scalar Network500.node230 	number_of_messages 	184
scalar Network500.node230 	discovery_latency 	3756
scalar Network500.node230 	number_of_desired_resources 	20
scalar Network500.node230 	query_homogenity_rate 	33.333333333333
scalar Network500.node230 	qrecord_time 	12182.54860992
scalar Network500.node230 	discovery_resolution_rate 	33.333333333333
scalar Network500.node480 	rate_of_requesters 	1
scalar Network500.node480 	number_of_resources 	27500
scalar Network500.node480 	time_period 	3
scalar Network500.node480 	number_of_messages 	72
scalar Network500.node480 	discovery_latency 	2856
scalar Network500.node480 	number_of_desired_resources 	20
scalar Network500.node480 	query_homogenity_rate 	33.333333333333
scalar Network500.node480 	qrecord_time 	12318.722272178
scalar Network500.node480 	discovery_resolution_rate 	66.666666666667
scalar Network500.node220 	rate_of_requesters 	1
scalar Network500.node220 	number_of_resources 	27500
scalar Network500.node220 	time_period 	3
scalar Network500.node220 	number_of_messages 	2
scalar Network500.node220 	discovery_latency 	3960
scalar Network500.node220 	number_of_desired_resources 	20
scalar Network500.node220 	query_homogenity_rate 	33.333333333333
scalar Network500.node220 	qrecord_time 	12324.117765074
scalar Network500.node220 	discovery_resolution_rate 	0
scalar Network500.node130 	rate_of_requesters 	1
scalar Network500.node130 	number_of_resources 	27500
scalar Network500.node130 	time_period 	2
scalar Network500.node130 	number_of_messages 	38
scalar Network500.node130 	discovery_latency 	3048
scalar Network500.node130 	number_of_desired_resources 	20
scalar Network500.node130 	query_homogenity_rate 	33.333333333333
scalar Network500.node130 	qrecord_time 	12420.002181871
scalar Network500.node130 	discovery_resolution_rate 	33.333333333333
scalar Network500.node420 	rate_of_requesters 	1
scalar Network500.node420 	number_of_resources 	27500
scalar Network500.node420 	time_period 	3
scalar Network500.node420 	number_of_messages 	35
scalar Network500.node420 	discovery_latency 	2808
scalar Network500.node420 	number_of_desired_resources 	20
scalar Network500.node420 	query_homogenity_rate 	33.333333333333
scalar Network500.node420 	qrecord_time 	12472.409518983
scalar Network500.node420 	discovery_resolution_rate 	33.333333333333
scalar Network500.node10 	rate_of_requesters 	1
scalar Network500.node10 	number_of_resources 	27500
scalar Network500.node10 	time_period 	3
scalar Network500.node10 	number_of_messages 	101
scalar Network500.node10 	discovery_latency 	3816
scalar Network500.node10 	number_of_desired_resources 	20
scalar Network500.node10 	query_homogenity_rate 	33.333333333333
scalar Network500.node10 	qrecord_time 	12476.510915834
scalar Network500.node10 	discovery_resolution_rate 	33.333333333333
scalar Network500.node10 	rate_of_requesters 	1
scalar Network500.node10 	number_of_resources 	27500
scalar Network500.node10 	time_period 	4
scalar Network500.node10 	number_of_messages 	186
scalar Network500.node10 	discovery_latency 	3048
scalar Network500.node10 	number_of_desired_resources 	20
scalar Network500.node10 	query_homogenity_rate 	33.333333333333
scalar Network500.node10 	qrecord_time 	12793.471450399
scalar Network500.node10 	discovery_resolution_rate 	50
scalar Network500.node380 	rate_of_requesters 	1
scalar Network500.node380 	number_of_resources 	27500
scalar Network500.node380 	time_period 	3
scalar Network500.node380 	number_of_messages 	194
scalar Network500.node380 	discovery_latency 	3924
scalar Network500.node380 	number_of_desired_resources 	20
scalar Network500.node380 	query_homogenity_rate 	33.333333333333
scalar Network500.node380 	qrecord_time 	12813.414569653
scalar Network500.node380 	discovery_resolution_rate 	16.666666666667
scalar Network500.node480 	rate_of_requesters 	1
scalar Network500.node480 	number_of_resources 	27500
scalar Network500.node480 	time_period 	4
scalar Network500.node480 	number_of_messages 	144
scalar Network500.node480 	discovery_latency 	2928
scalar Network500.node480 	number_of_desired_resources 	20
scalar Network500.node480 	query_homogenity_rate 	33.333333333333
scalar Network500.node480 	qrecord_time 	12864.831695392
scalar Network500.node480 	discovery_resolution_rate 	33.333333333333
scalar Network500.node330 	rate_of_requesters 	1
scalar Network500.node330 	number_of_resources 	27500
scalar Network500.node330 	time_period 	4
scalar Network500.node330 	number_of_messages 	21
scalar Network500.node330 	discovery_latency 	2880
scalar Network500.node330 	number_of_desired_resources 	20
scalar Network500.node330 	query_homogenity_rate 	33.333333333333
scalar Network500.node330 	qrecord_time 	12876.529805636
scalar Network500.node330 	discovery_resolution_rate 	33.333333333333
scalar Network500.node280 	rate_of_requesters 	1
scalar Network500.node280 	number_of_resources 	27500
scalar Network500.node280 	time_period 	3
scalar Network500.node280 	number_of_messages 	6
scalar Network500.node280 	discovery_latency 	2880
scalar Network500.node280 	number_of_desired_resources 	20
scalar Network500.node280 	query_homogenity_rate 	33.333333333333
scalar Network500.node280 	qrecord_time 	12923.44733317
scalar Network500.node280 	discovery_resolution_rate 	33.333333333333
scalar Network500.node250 	rate_of_requesters 	1
scalar Network500.node250 	number_of_resources 	27500
scalar Network500.node250 	time_period 	3
scalar Network500.node250 	number_of_messages 	12
scalar Network500.node250 	discovery_latency 	3072
scalar Network500.node250 	number_of_desired_resources 	20
scalar Network500.node250 	query_homogenity_rate 	33.333333333333
scalar Network500.node250 	qrecord_time 	12950.800174466
scalar Network500.node250 	discovery_resolution_rate 	33.333333333333
scalar Network500.node0 	rate_of_requesters 	1
scalar Network500.node0 	number_of_resources 	27500
scalar Network500.node0 	time_period 	2
scalar Network500.node0 	number_of_messages 	99
scalar Network500.node0 	discovery_latency 	2916
scalar Network500.node0 	number_of_desired_resources 	20
scalar Network500.node0 	query_homogenity_rate 	33.333333333333
scalar Network500.node0 	qrecord_time 	13150.541735694
scalar Network500.node0 	discovery_resolution_rate 	33.333333333333
scalar Network500.node410 	rate_of_requesters 	1
scalar Network500.node410 	number_of_resources 	27500
scalar Network500.node410 	time_period 	2
scalar Network500.node410 	number_of_messages 	38
scalar Network500.node410 	discovery_latency 	2868
scalar Network500.node410 	number_of_desired_resources 	20
scalar Network500.node410 	query_homogenity_rate 	33.333333333333
scalar Network500.node410 	qrecord_time 	13181.553429814
scalar Network500.node410 	discovery_resolution_rate 	33.333333333333
scalar Network500.node340 	rate_of_requesters 	1
scalar Network500.node340 	number_of_resources 	27500
scalar Network500.node340 	time_period 	3
scalar Network500.node340 	number_of_messages 	26
scalar Network500.node340 	discovery_latency 	2892
scalar Network500.node340 	number_of_desired_resources 	20
scalar Network500.node340 	query_homogenity_rate 	33.333333333333
scalar Network500.node340 	qrecord_time 	13220.314771188
scalar Network500.node340 	discovery_resolution_rate 	33.333333333333
scalar Network500.node330 	rate_of_requesters 	1
scalar Network500.node330 	number_of_resources 	27500
scalar Network500.node330 	time_period 	5
scalar Network500.node330 	number_of_messages 	31
scalar Network500.node330 	discovery_latency 	3012
scalar Network500.node330 	number_of_desired_resources 	20
scalar Network500.node330 	query_homogenity_rate 	33.333333333333
scalar Network500.node330 	qrecord_time 	13233.743801069
scalar Network500.node330 	discovery_resolution_rate 	33.333333333333
scalar Network500.node310 	rate_of_requesters 	1
scalar Network500.node310 	number_of_resources 	27500
scalar Network500.node310 	time_period 	2
scalar Network500.node310 	number_of_messages 	27
scalar Network500.node310 	discovery_latency 	3048
scalar Network500.node310 	number_of_desired_resources 	20
scalar Network500.node310 	query_homogenity_rate 	33.333333333333
scalar Network500.node310 	qrecord_time 	13374.273908073
scalar Network500.node310 	discovery_resolution_rate 	33.333333333333
scalar Network500.node100 	rate_of_requesters 	1
scalar Network500.node100 	number_of_resources 	27500
scalar Network500.node100 	time_period 	4
scalar Network500.node100 	number_of_messages 	194
scalar Network500.node100 	discovery_latency 	3960
scalar Network500.node100 	number_of_desired_resources 	20
scalar Network500.node100 	query_homogenity_rate 	33.333333333333
scalar Network500.node100 	qrecord_time 	13494.418288292
scalar Network500.node100 	discovery_resolution_rate 	16.666666666667
scalar Network500.node30 	rate_of_requesters 	1
scalar Network500.node30 	number_of_resources 	27500
scalar Network500.node30 	time_period 	3
scalar Network500.node30 	number_of_messages 	2
scalar Network500.node30 	discovery_latency 	4008
scalar Network500.node30 	number_of_desired_resources 	20
scalar Network500.node30 	query_homogenity_rate 	33.333333333333
scalar Network500.node30 	qrecord_time 	13539.329156675
scalar Network500.node30 	discovery_resolution_rate 	0
scalar Network500.node470 	rate_of_requesters 	1
scalar Network500.node470 	number_of_resources 	27500
scalar Network500.node470 	time_period 	2
scalar Network500.node470 	number_of_messages 	21
scalar Network500.node470 	discovery_latency 	2892
scalar Network500.node470 	number_of_desired_resources 	20
scalar Network500.node470 	query_homogenity_rate 	33.333333333333
scalar Network500.node470 	qrecord_time 	13615.639510074
scalar Network500.node470 	discovery_resolution_rate 	33.333333333333
scalar Network500.node160 	rate_of_requesters 	1
scalar Network500.node160 	number_of_resources 	27500
scalar Network500.node160 	time_period 	3
scalar Network500.node160 	number_of_messages 	92
scalar Network500.node160 	discovery_latency 	2940
scalar Network500.node160 	number_of_desired_resources 	20
scalar Network500.node160 	query_homogenity_rate 	33.333333333333
scalar Network500.node160 	qrecord_time 	13631.964806928
scalar Network500.node160 	discovery_resolution_rate 	33.333333333333
scalar Network500.node100 	rate_of_requesters 	1
scalar Network500.node100 	number_of_resources 	27500
scalar Network500.node100 	time_period 	5
scalar Network500.node100 	number_of_messages 	194
scalar Network500.node100 	discovery_latency 	3828
scalar Network500.node100 	number_of_desired_resources 	20
scalar Network500.node100 	query_homogenity_rate 	33.333333333333
scalar Network500.node100 	qrecord_time 	13798.477407475
scalar Network500.node100 	discovery_resolution_rate 	16.666666666667
scalar Network500.node340 	rate_of_requesters 	1
scalar Network500.node340 	number_of_resources 	27500
scalar Network500.node340 	time_period 	4
scalar Network500.node340 	number_of_messages 	75
scalar Network500.node340 	discovery_latency 	2952
scalar Network500.node340 	number_of_desired_resources 	20
scalar Network500.node340 	query_homogenity_rate 	33.333333333333
scalar Network500.node340 	qrecord_time 	13814.699554187
scalar Network500.node340 	discovery_resolution_rate 	33.333333333333
scalar Network500.node350 	rate_of_requesters 	1
scalar Network500.node350 	number_of_resources 	27500
scalar Network500.node350 	time_period 	3
scalar Network500.node350 	number_of_messages 	54
scalar Network500.node350 	discovery_latency 	3048
scalar Network500.node350 	number_of_desired_resources 	20
scalar Network500.node350 	query_homogenity_rate 	33.333333333333
scalar Network500.node350 	qrecord_time 	13897.251027046
scalar Network500.node350 	discovery_resolution_rate 	33.333333333333
scalar Network500.node440 	rate_of_requesters 	1
scalar Network500.node440 	number_of_resources 	27500
scalar Network500.node440 	time_period 	4
scalar Network500.node440 	number_of_messages 	29
scalar Network500.node440 	discovery_latency 	3024
scalar Network500.node440 	number_of_desired_resources 	20
scalar Network500.node440 	query_homogenity_rate 	33.333333333333
scalar Network500.node440 	qrecord_time 	13988.401662353
scalar Network500.node440 	discovery_resolution_rate 	33.333333333333
scalar Network500.node110 	rate_of_requesters 	1
scalar Network500.node110 	number_of_resources 	27500
scalar Network500.node110 	time_period 	3
scalar Network500.node110 	number_of_messages 	51
scalar Network500.node110 	discovery_latency 	3000
scalar Network500.node110 	number_of_desired_resources 	20
scalar Network500.node110 	query_homogenity_rate 	33.333333333333
scalar Network500.node110 	qrecord_time 	14101.033636186
scalar Network500.node110 	discovery_resolution_rate 	33.333333333333
scalar Network500.node290 	rate_of_requesters 	1
scalar Network500.node290 	number_of_resources 	27500
scalar Network500.node290 	time_period 	4
scalar Network500.node290 	number_of_messages 	158
scalar Network500.node290 	discovery_latency 	2796
scalar Network500.node290 	number_of_desired_resources 	20
scalar Network500.node290 	query_homogenity_rate 	33.333333333333
scalar Network500.node290 	qrecord_time 	14209.23432167
scalar Network500.node290 	discovery_resolution_rate 	66.666666666667
scalar Network500.node320 	rate_of_requesters 	1
scalar Network500.node320 	number_of_resources 	27500
scalar Network500.node320 	time_period 	2
scalar Network500.node320 	number_of_messages 	121
scalar Network500.node320 	discovery_latency 	2928
scalar Network500.node320 	number_of_desired_resources 	20
scalar Network500.node320 	query_homogenity_rate 	33.333333333333
scalar Network500.node320 	qrecord_time 	14263.27647037
scalar Network500.node320 	discovery_resolution_rate 	33.333333333333
scalar Network500.node180 	rate_of_requesters 	1
scalar Network500.node180 	number_of_resources 	27500
scalar Network500.node180 	time_period 	4
scalar Network500.node180 	number_of_messages 	108
scalar Network500.node180 	discovery_latency 	2904
scalar Network500.node180 	number_of_desired_resources 	20
scalar Network500.node180 	query_homogenity_rate 	33.333333333333
scalar Network500.node180 	qrecord_time 	14453.365606551
scalar Network500.node180 	discovery_resolution_rate 	33.333333333333
scalar Network500.node170 	rate_of_requesters 	1
scalar Network500.node170 	number_of_resources 	27500
scalar Network500.node170 	time_period 	4
scalar Network500.node170 	number_of_messages 	35
scalar Network500.node170 	discovery_latency 	2964
scalar Network500.node170 	number_of_desired_resources 	20
scalar Network500.node170 	query_homogenity_rate 	33.333333333333
scalar Network500.node170 	qrecord_time 	14472.802870972
scalar Network500.node170 	discovery_resolution_rate 	33.333333333333
scalar Network500.node0 	rate_of_requesters 	1
scalar Network500.node0 	number_of_resources 	27500
scalar Network500.node0 	time_period 	3
scalar Network500.node0 	number_of_messages 	56
scalar Network500.node0 	discovery_latency 	2892
scalar Network500.node0 	number_of_desired_resources 	20
scalar Network500.node0 	query_homogenity_rate 	33.333333333333
scalar Network500.node0 	qrecord_time 	14535.884349537
scalar Network500.node0 	discovery_resolution_rate 	33.333333333333
scalar Network500.node20 	rate_of_requesters 	1
scalar Network500.node20 	number_of_resources 	27500
scalar Network500.node20 	time_period 	3
scalar Network500.node20 	number_of_messages 	18
scalar Network500.node20 	discovery_latency 	2892
scalar Network500.node20 	number_of_desired_resources 	20
scalar Network500.node20 	query_homogenity_rate 	33.333333333333
scalar Network500.node20 	qrecord_time 	14625.140870987
scalar Network500.node20 	discovery_resolution_rate 	33.333333333333
scalar Network500.node470 	rate_of_requesters 	1
scalar Network500.node470 	number_of_resources 	27500
scalar Network500.node470 	time_period 	3
scalar Network500.node470 	number_of_messages 	2
scalar Network500.node470 	discovery_latency 	4056
scalar Network500.node470 	number_of_desired_resources 	20
scalar Network500.node470 	query_homogenity_rate 	33.333333333333
scalar Network500.node470 	qrecord_time 	14796.974072343
scalar Network500.node470 	discovery_resolution_rate 	0
scalar Network500.node100 	rate_of_requesters 	1
scalar Network500.node100 	number_of_resources 	27500
scalar Network500.node100 	time_period 	6
scalar Network500.node100 	number_of_messages 	2
scalar Network500.node100 	discovery_latency 	4056
scalar Network500.node100 	number_of_desired_resources 	20
scalar Network500.node100 	query_homogenity_rate 	33.333333333333
scalar Network500.node100 	qrecord_time 	14799.383276654
scalar Network500.node100 	discovery_resolution_rate 	0
scalar Network500.node480 	rate_of_requesters 	1
scalar Network500.node480 	number_of_resources 	27500
scalar Network500.node480 	time_period 	5
scalar Network500.node480 	number_of_messages 	101
scalar Network500.node480 	discovery_latency 	2964
scalar Network500.node480 	number_of_desired_resources 	20
scalar Network500.node480 	query_homogenity_rate 	33.333333333333
scalar Network500.node480 	qrecord_time 	14939.781479767
scalar Network500.node480 	discovery_resolution_rate 	66.666666666667
scalar Network500.node30 	rate_of_requesters 	1
scalar Network500.node30 	number_of_resources 	27500
scalar Network500.node30 	time_period 	4
scalar Network500.node30 	number_of_messages 	194
scalar Network500.node30 	discovery_latency 	3768
scalar Network500.node30 	number_of_desired_resources 	20
scalar Network500.node30 	query_homogenity_rate 	33.333333333333
scalar Network500.node30 	qrecord_time 	14953.391420747
scalar Network500.node30 	discovery_resolution_rate 	16.666666666667
scalar Network500.node200 	rate_of_requesters 	1
scalar Network500.node200 	number_of_resources 	27500
scalar Network500.node200 	time_period 	4
scalar Network500.node200 	number_of_messages 	194
scalar Network500.node200 	discovery_latency 	3768
scalar Network500.node200 	number_of_desired_resources 	20
scalar Network500.node200 	query_homogenity_rate 	33.333333333333
scalar Network500.node200 	qrecord_time 	15026.186235261
scalar Network500.node200 	discovery_resolution_rate 	16.666666666667
scalar Network500.node410 	rate_of_requesters 	1
scalar Network500.node410 	number_of_resources 	27500
scalar Network500.node410 	time_period 	3
scalar Network500.node410 	number_of_messages 	25
scalar Network500.node410 	discovery_latency 	2904
scalar Network500.node410 	number_of_desired_resources 	20
scalar Network500.node410 	query_homogenity_rate 	33.333333333333
scalar Network500.node410 	qrecord_time 	15270.647203644
scalar Network500.node410 	discovery_resolution_rate 	33.333333333333
scalar Network500.node220 	rate_of_requesters 	1
scalar Network500.node220 	number_of_resources 	27500
scalar Network500.node220 	time_period 	4
scalar Network500.node220 	number_of_messages 	43
scalar Network500.node220 	discovery_latency 	2928
scalar Network500.node220 	number_of_desired_resources 	20
scalar Network500.node220 	query_homogenity_rate 	33.333333333333
scalar Network500.node220 	qrecord_time 	15458.080348071
scalar Network500.node220 	discovery_resolution_rate 	33.333333333333
scalar Network500.node70 	rate_of_requesters 	1
scalar Network500.node70 	number_of_resources 	27500
scalar Network500.node70 	time_period 	3
scalar Network500.node70 	number_of_messages 	2
scalar Network500.node70 	discovery_latency 	3996
scalar Network500.node70 	number_of_desired_resources 	20
scalar Network500.node70 	query_homogenity_rate 	33.333333333333
scalar Network500.node70 	qrecord_time 	15508.673270599
scalar Network500.node70 	discovery_resolution_rate 	0
scalar Network500.node120 	rate_of_requesters 	1
scalar Network500.node120 	number_of_resources 	27500
scalar Network500.node120 	time_period 	6
scalar Network500.node120 	number_of_messages 	11
scalar Network500.node120 	discovery_latency 	2940
scalar Network500.node120 	number_of_desired_resources 	20
scalar Network500.node120 	query_homogenity_rate 	33.333333333333
scalar Network500.node120 	qrecord_time 	15563.262021232
scalar Network500.node120 	discovery_resolution_rate 	33.333333333333
scalar Network500.node360 	rate_of_requesters 	1
scalar Network500.node360 	number_of_resources 	27500
scalar Network500.node360 	time_period 	5
scalar Network500.node360 	number_of_messages 	2
scalar Network500.node360 	discovery_latency 	3744
scalar Network500.node360 	number_of_desired_resources 	20
scalar Network500.node360 	query_homogenity_rate 	33.333333333333
scalar Network500.node360 	qrecord_time 	15694.356638266
scalar Network500.node360 	discovery_resolution_rate 	0
scalar Network500.node400 	rate_of_requesters 	1
scalar Network500.node400 	number_of_resources 	27500
scalar Network500.node400 	time_period 	3
scalar Network500.node400 	number_of_messages 	74
scalar Network500.node400 	discovery_latency 	3096
scalar Network500.node400 	number_of_desired_resources 	20
scalar Network500.node400 	query_homogenity_rate 	33.333333333333
scalar Network500.node400 	qrecord_time 	15708.350206091
scalar Network500.node400 	discovery_resolution_rate 	33.333333333333
scalar Network500.node320 	rate_of_requesters 	1
scalar Network500.node320 	number_of_resources 	27500
scalar Network500.node320 	time_period 	3
scalar Network500.node320 	number_of_messages 	167
scalar Network500.node320 	discovery_latency 	3180
scalar Network500.node320 	number_of_desired_resources 	20
scalar Network500.node320 	query_homogenity_rate 	33.333333333333
scalar Network500.node320 	qrecord_time 	15800.707114083
scalar Network500.node320 	discovery_resolution_rate 	33.333333333333
scalar Network500.node460 	rate_of_requesters 	1
scalar Network500.node460 	number_of_resources 	27500
scalar Network500.node460 	time_period 	3
scalar Network500.node460 	number_of_messages 	2
scalar Network500.node460 	discovery_latency 	3816
scalar Network500.node460 	number_of_desired_resources 	20
scalar Network500.node460 	query_homogenity_rate 	33.333333333333
scalar Network500.node460 	qrecord_time 	15852.130037369
scalar Network500.node460 	discovery_resolution_rate 	0
scalar Network500.node150 	rate_of_requesters 	1
scalar Network500.node150 	number_of_resources 	27500
scalar Network500.node150 	time_period 	4
scalar Network500.node150 	number_of_messages 	51
scalar Network500.node150 	discovery_latency 	3924
scalar Network500.node150 	number_of_desired_resources 	20
scalar Network500.node150 	query_homogenity_rate 	33.333333333333
scalar Network500.node150 	qrecord_time 	15913.457317757
scalar Network500.node150 	discovery_resolution_rate 	33.333333333333
scalar Network500.node10 	rate_of_requesters 	1
scalar Network500.node10 	number_of_resources 	27500
scalar Network500.node10 	time_period 	5
scalar Network500.node10 	number_of_messages 	194
scalar Network500.node10 	discovery_latency 	3876
scalar Network500.node10 	number_of_desired_resources 	20
scalar Network500.node10 	query_homogenity_rate 	33.333333333333
scalar Network500.node10 	qrecord_time 	16025.18066533
scalar Network500.node10 	discovery_resolution_rate 	16.666666666667
scalar Network500.node450 	rate_of_requesters 	1
scalar Network500.node450 	number_of_resources 	27500
scalar Network500.node450 	time_period 	3
scalar Network500.node450 	number_of_messages 	194
scalar Network500.node450 	discovery_latency 	3888
scalar Network500.node450 	number_of_desired_resources 	20
scalar Network500.node450 	query_homogenity_rate 	33.333333333333
scalar Network500.node450 	qrecord_time 	16077.082396896
scalar Network500.node450 	discovery_resolution_rate 	16.666666666667
scalar Network500.node480 	rate_of_requesters 	1
scalar Network500.node480 	number_of_resources 	27500
scalar Network500.node480 	time_period 	6
scalar Network500.node480 	number_of_messages 	32
scalar Network500.node480 	discovery_latency 	3024
scalar Network500.node480 	number_of_desired_resources 	20
scalar Network500.node480 	query_homogenity_rate 	33.333333333333
scalar Network500.node480 	qrecord_time 	16100.170556134
scalar Network500.node480 	discovery_resolution_rate 	33.333333333333
scalar Network500.node150 	rate_of_requesters 	1
scalar Network500.node150 	number_of_resources 	27500
scalar Network500.node150 	time_period 	5
scalar Network500.node150 	number_of_messages 	154
scalar Network500.node150 	discovery_latency 	3192
scalar Network500.node150 	number_of_desired_resources 	20
scalar Network500.node150 	query_homogenity_rate 	33.333333333333
scalar Network500.node150 	qrecord_time 	16113.617304003
scalar Network500.node150 	discovery_resolution_rate 	33.333333333333
scalar Network500.node80 	rate_of_requesters 	1
scalar Network500.node80 	number_of_resources 	27500
scalar Network500.node80 	time_period 	4
scalar Network500.node80 	number_of_messages 	89
scalar Network500.node80 	discovery_latency 	2940
scalar Network500.node80 	number_of_desired_resources 	20
scalar Network500.node80 	query_homogenity_rate 	33.333333333333
scalar Network500.node80 	qrecord_time 	16212.383762138
scalar Network500.node80 	discovery_resolution_rate 	33.333333333333
scalar Network500.node10 	rate_of_requesters 	1
scalar Network500.node10 	number_of_resources 	27500
scalar Network500.node10 	time_period 	6
scalar Network500.node10 	number_of_messages 	77
scalar Network500.node10 	discovery_latency 	3012
scalar Network500.node10 	number_of_desired_resources 	20
scalar Network500.node10 	query_homogenity_rate 	33.333333333333
scalar Network500.node10 	qrecord_time 	16318.700635774
scalar Network500.node10 	discovery_resolution_rate 	33.333333333333
scalar Network500.node340 	rate_of_requesters 	1
scalar Network500.node340 	number_of_resources 	27500
scalar Network500.node340 	time_period 	5
scalar Network500.node340 	number_of_messages 	0
scalar Network500.node340 	discovery_latency 	3996
scalar Network500.node340 	number_of_desired_resources 	20
scalar Network500.node340 	query_homogenity_rate 	33.333333333333
scalar Network500.node340 	qrecord_time 	16335.267274583
scalar Network500.node340 	discovery_resolution_rate 	0
scalar Network500.node440 	rate_of_requesters 	1
scalar Network500.node440 	number_of_resources 	27500
scalar Network500.node440 	time_period 	5
scalar Network500.node440 	number_of_messages 	87
scalar Network500.node440 	discovery_latency 	3000
scalar Network500.node440 	number_of_desired_resources 	20
scalar Network500.node440 	query_homogenity_rate 	33.333333333333
scalar Network500.node440 	qrecord_time 	16385.574815841
scalar Network500.node440 	discovery_resolution_rate 	33.333333333333
scalar Network500.node300 	rate_of_requesters 	1
scalar Network500.node300 	number_of_resources 	27500
scalar Network500.node300 	time_period 	3
scalar Network500.node300 	number_of_messages 	79
scalar Network500.node300 	discovery_latency 	2796
scalar Network500.node300 	number_of_desired_resources 	20
scalar Network500.node300 	query_homogenity_rate 	33.333333333333
scalar Network500.node300 	qrecord_time 	16579.628058494
scalar Network500.node300 	discovery_resolution_rate 	33.333333333333
scalar Network500.node380 	rate_of_requesters 	1
scalar Network500.node380 	number_of_resources 	27500
scalar Network500.node380 	time_period 	4
scalar Network500.node380 	number_of_messages 	83
scalar Network500.node380 	discovery_latency 	3000
scalar Network500.node380 	number_of_desired_resources 	20
scalar Network500.node380 	query_homogenity_rate 	33.333333333333
scalar Network500.node380 	qrecord_time 	16587.939349832
[...]
scalar Network500.node330 	qrecord_time 	45981.676524472
scalar Network500.node330 	discovery_resolution_rate 	66.666666666667
scalar Network500.node60 	rate_of_requesters 	1
scalar Network500.node60 	number_of_resources 	27500
scalar Network500.node60 	time_period 	10
scalar Network500.node60 	number_of_messages 	57
scalar Network500.node60 	discovery_latency 	2724
scalar Network500.node60 	number_of_desired_resources 	20
scalar Network500.node60 	query_homogenity_rate 	33.333333333333
scalar Network500.node60 	qrecord_time 	46147.093409298
scalar Network500.node60 	discovery_resolution_rate 	66.666666666667
scalar Network500.node490 	rate_of_requesters 	1
scalar Network500.node490 	number_of_resources 	27500
scalar Network500.node490 	time_period 	8
scalar Network500.node490 	number_of_messages 	139
scalar Network500.node490 	discovery_latency 	2904
scalar Network500.node490 	number_of_desired_resources 	20
scalar Network500.node490 	query_homogenity_rate 	33.333333333333
scalar Network500.node490 	qrecord_time 	46762.739467733
scalar Network500.node490 	discovery_resolution_rate 	50
scalar Network500.node140 	rate_of_requesters 	1
scalar Network500.node140 	number_of_resources 	27500
scalar Network500.node140 	time_period 	8
scalar Network500.node140 	number_of_messages 	99
scalar Network500.node140 	discovery_latency 	2760
scalar Network500.node140 	number_of_desired_resources 	20
scalar Network500.node140 	query_homogenity_rate 	33.333333333333
scalar Network500.node140 	qrecord_time 	46873.068978027
scalar Network500.node140 	discovery_resolution_rate 	66.666666666667
scalar Network500.node140 	rate_of_requesters 	1
scalar Network500.node140 	number_of_resources 	27500
scalar Network500.node140 	time_period 	9
scalar Network500.node140 	number_of_messages 	55
scalar Network500.node140 	discovery_latency 	2736
scalar Network500.node140 	number_of_desired_resources 	20
scalar Network500.node140 	query_homogenity_rate 	33.333333333333
scalar Network500.node140 	qrecord_time 	46908.347866762
scalar Network500.node140 	discovery_resolution_rate 	66.666666666667
scalar Network500.node350 	rate_of_requesters 	1
scalar Network500.node350 	number_of_resources 	27500
scalar Network500.node350 	time_period 	10
scalar Network500.node350 	number_of_messages 	13
scalar Network500.node350 	discovery_latency 	3012
scalar Network500.node350 	number_of_desired_resources 	20
scalar Network500.node350 	query_homogenity_rate 	33.333333333333
scalar Network500.node350 	qrecord_time 	47842.523083708
scalar Network500.node350 	discovery_resolution_rate 	33.333333333333
scalar Network500.node430 	rate_of_requesters 	1
scalar Network500.node430 	number_of_resources 	27500
scalar Network500.node430 	time_period 	7
scalar Network500.node430 	number_of_messages 	45
scalar Network500.node430 	discovery_latency 	2820
scalar Network500.node430 	number_of_desired_resources 	20
scalar Network500.node430 	query_homogenity_rate 	33.333333333333
scalar Network500.node430 	qrecord_time 	48010.593219019
scalar Network500.node430 	discovery_resolution_rate 	66.666666666667
scalar Network500.node490 	rate_of_requesters 	1
scalar Network500.node490 	number_of_resources 	27500
scalar Network500.node490 	time_period 	9
scalar Network500.node490 	number_of_messages 	37
scalar Network500.node490 	discovery_latency 	2940
scalar Network500.node490 	number_of_desired_resources 	20
scalar Network500.node490 	query_homogenity_rate 	33.333333333333
scalar Network500.node490 	qrecord_time 	48141.971009699
scalar Network500.node490 	discovery_resolution_rate 	33.333333333333
scalar Network500.node320 	rate_of_requesters 	1
scalar Network500.node320 	number_of_resources 	27500
scalar Network500.node320 	time_period 	7
scalar Network500.node320 	number_of_messages 	5
scalar Network500.node320 	discovery_latency 	2880
scalar Network500.node320 	number_of_desired_resources 	20
scalar Network500.node320 	query_homogenity_rate 	33.333333333333
scalar Network500.node320 	qrecord_time 	48268.344752928
scalar Network500.node320 	discovery_resolution_rate 	33.333333333333
scalar Network500.node330 	rate_of_requesters 	1
scalar Network500.node330 	number_of_resources 	27500
scalar Network500.node330 	time_period 	9
scalar Network500.node330 	number_of_messages 	12
scalar Network500.node330 	discovery_latency 	3060
scalar Network500.node330 	number_of_desired_resources 	20
scalar Network500.node330 	query_homogenity_rate 	33.333333333333
scalar Network500.node330 	qrecord_time 	48313.978153999
scalar Network500.node330 	discovery_resolution_rate 	33.333333333333
scalar Network500.node140 	rate_of_requesters 	1
scalar Network500.node140 	number_of_resources 	27500
scalar Network500.node140 	time_period 	10
scalar Network500.node140 	number_of_messages 	119
scalar Network500.node140 	discovery_latency 	2736
scalar Network500.node140 	number_of_desired_resources 	20
scalar Network500.node140 	query_homogenity_rate 	33.333333333333
scalar Network500.node140 	qrecord_time 	48416.212132476
scalar Network500.node140 	discovery_resolution_rate 	66.666666666667
scalar Network500.node430 	rate_of_requesters 	1
scalar Network500.node430 	number_of_resources 	27500
scalar Network500.node430 	time_period 	8
scalar Network500.node430 	number_of_messages 	92
scalar Network500.node430 	discovery_latency 	2784
scalar Network500.node430 	number_of_desired_resources 	20
scalar Network500.node430 	query_homogenity_rate 	33.333333333333
scalar Network500.node430 	qrecord_time 	48425.657458198
scalar Network500.node430 	discovery_resolution_rate 	66.666666666667
scalar Network500.node180 	rate_of_requesters 	1
scalar Network500.node180 	number_of_resources 	27500
scalar Network500.node180 	time_period 	10
scalar Network500.node180 	number_of_messages 	8
scalar Network500.node180 	discovery_latency 	2940
scalar Network500.node180 	number_of_desired_resources 	20
scalar Network500.node180 	query_homogenity_rate 	33.333333333333
scalar Network500.node180 	qrecord_time 	48541.499029075
scalar Network500.node180 	discovery_resolution_rate 	33.333333333333
scalar Network500.node90 	rate_of_requesters 	1
scalar Network500.node90 	number_of_resources 	27500
scalar Network500.node90 	time_period 	7
scalar Network500.node90 	number_of_messages 	113
scalar Network500.node90 	discovery_latency 	2904
scalar Network500.node90 	number_of_desired_resources 	20
scalar Network500.node90 	query_homogenity_rate 	33.333333333333
scalar Network500.node90 	qrecord_time 	48771.651473971
scalar Network500.node90 	discovery_resolution_rate 	66.666666666667
scalar Network500.node250 	rate_of_requesters 	1
scalar Network500.node250 	number_of_resources 	27500
scalar Network500.node250 	time_period 	9
scalar Network500.node250 	number_of_messages 	4
scalar Network500.node250 	discovery_latency 	2964
scalar Network500.node250 	number_of_desired_resources 	20
scalar Network500.node250 	query_homogenity_rate 	33.333333333333
scalar Network500.node250 	qrecord_time 	48787.32777317
scalar Network500.node250 	discovery_resolution_rate 	33.333333333333
scalar Network500.node210 	rate_of_requesters 	1
scalar Network500.node210 	number_of_resources 	27500
scalar Network500.node210 	time_period 	9
scalar Network500.node210 	number_of_messages 	49
scalar Network500.node210 	discovery_latency 	2688
scalar Network500.node210 	number_of_desired_resources 	20
scalar Network500.node210 	query_homogenity_rate 	33.333333333333
scalar Network500.node210 	qrecord_time 	49538.654257506
scalar Network500.node210 	discovery_resolution_rate 	66.666666666667
scalar Network500.node320 	rate_of_requesters 	1
scalar Network500.node320 	number_of_resources 	27500
scalar Network500.node320 	time_period 	8
scalar Network500.node320 	number_of_messages 	99
scalar Network500.node320 	discovery_latency 	2904
scalar Network500.node320 	number_of_desired_resources 	20
scalar Network500.node320 	query_homogenity_rate 	33.333333333333
scalar Network500.node320 	qrecord_time 	50254.447275324
scalar Network500.node320 	discovery_resolution_rate 	66.666666666667
scalar Network500.node330 	rate_of_requesters 	1
scalar Network500.node330 	number_of_resources 	27500
scalar Network500.node330 	time_period 	10
scalar Network500.node330 	number_of_messages 	29
scalar Network500.node330 	discovery_latency 	2928
scalar Network500.node330 	number_of_desired_resources 	20
scalar Network500.node330 	query_homogenity_rate 	33.333333333333
scalar Network500.node330 	qrecord_time 	50400.12535975
scalar Network500.node330 	discovery_resolution_rate 	33.333333333333
scalar Network500.node210 	rate_of_requesters 	1
scalar Network500.node210 	number_of_resources 	27500
scalar Network500.node210 	time_period 	10
scalar Network500.node210 	number_of_messages 	110
scalar Network500.node210 	discovery_latency 	2892
scalar Network500.node210 	number_of_desired_resources 	20
scalar Network500.node210 	query_homogenity_rate 	33.333333333333
scalar Network500.node210 	qrecord_time 	50642.996727979
scalar Network500.node210 	discovery_resolution_rate 	66.666666666667
scalar Network500.node430 	rate_of_requesters 	1
scalar Network500.node430 	number_of_resources 	27500
scalar Network500.node430 	time_period 	9
scalar Network500.node430 	number_of_messages 	10
scalar Network500.node430 	discovery_latency 	2892
scalar Network500.node430 	number_of_desired_resources 	20
scalar Network500.node430 	query_homogenity_rate 	33.333333333333
scalar Network500.node430 	qrecord_time 	51483.984035237
scalar Network500.node430 	discovery_resolution_rate 	33.333333333333
scalar Network500.node250 	rate_of_requesters 	1
scalar Network500.node250 	number_of_resources 	27500
scalar Network500.node250 	time_period 	10
scalar Network500.node250 	number_of_messages 	4
scalar Network500.node250 	discovery_latency 	2952
scalar Network500.node250 	number_of_desired_resources 	20
scalar Network500.node250 	query_homogenity_rate 	33.333333333333
scalar Network500.node250 	qrecord_time 	51939.536056959
scalar Network500.node250 	discovery_resolution_rate 	33.333333333333
scalar Network500.node260 	rate_of_requesters 	1
scalar Network500.node260 	number_of_resources 	27500
scalar Network500.node260 	time_period 	7
scalar Network500.node260 	number_of_messages 	15
scalar Network500.node260 	discovery_latency 	3024
scalar Network500.node260 	number_of_desired_resources 	20
scalar Network500.node260 	query_homogenity_rate 	33.333333333333
scalar Network500.node260 	qrecord_time 	51992.653905529
scalar Network500.node260 	discovery_resolution_rate 	33.333333333333
scalar Network500.node490 	rate_of_requesters 	1
scalar Network500.node490 	number_of_resources 	27500
scalar Network500.node490 	time_period 	10
scalar Network500.node490 	number_of_messages 	62
scalar Network500.node490 	discovery_latency 	2844
scalar Network500.node490 	number_of_desired_resources 	20
scalar Network500.node490 	query_homogenity_rate 	33.333333333333
scalar Network500.node490 	qrecord_time 	52096.999346355
scalar Network500.node490 	discovery_resolution_rate 	33.333333333333
scalar Network500.node260 	rate_of_requesters 	1
scalar Network500.node260 	number_of_resources 	27500
scalar Network500.node260 	time_period 	8
scalar Network500.node260 	number_of_messages 	142
scalar Network500.node260 	discovery_latency 	2844
scalar Network500.node260 	number_of_desired_resources 	20
scalar Network500.node260 	query_homogenity_rate 	33.333333333333
scalar Network500.node260 	qrecord_time 	52581.09615165
scalar Network500.node260 	discovery_resolution_rate 	66.666666666667
scalar Network500.node390 	rate_of_requesters 	1
scalar Network500.node390 	number_of_resources 	27500
scalar Network500.node390 	time_period 	6
scalar Network500.node390 	number_of_messages 	50
scalar Network500.node390 	discovery_latency 	2880
scalar Network500.node390 	number_of_desired_resources 	20
scalar Network500.node390 	query_homogenity_rate 	33.333333333333
scalar Network500.node390 	qrecord_time 	52804.14950737
scalar Network500.node390 	discovery_resolution_rate 	66.666666666667
scalar Network500.node430 	rate_of_requesters 	1
scalar Network500.node430 	number_of_resources 	27500
scalar Network500.node430 	time_period 	10
scalar Network500.node430 	number_of_messages 	9
scalar Network500.node430 	discovery_latency 	2892
scalar Network500.node430 	number_of_desired_resources 	20
scalar Network500.node430 	query_homogenity_rate 	33.333333333333
scalar Network500.node430 	qrecord_time 	53234.165268848
scalar Network500.node430 	discovery_resolution_rate 	33.333333333333
scalar Network500.node400 	rate_of_requesters 	1
scalar Network500.node400 	number_of_resources 	27500
scalar Network500.node400 	time_period 	10
scalar Network500.node400 	number_of_messages 	21
scalar Network500.node400 	discovery_latency 	3204
scalar Network500.node400 	number_of_desired_resources 	20
scalar Network500.node400 	query_homogenity_rate 	33.333333333333
scalar Network500.node400 	qrecord_time 	53265.43191519
scalar Network500.node400 	discovery_resolution_rate 	33.333333333333
scalar Network500.node390 	rate_of_requesters 	1
scalar Network500.node390 	number_of_resources 	27500
scalar Network500.node390 	time_period 	7
scalar Network500.node390 	number_of_messages 	114
scalar Network500.node390 	discovery_latency 	2880
scalar Network500.node390 	number_of_desired_resources 	20
scalar Network500.node390 	query_homogenity_rate 	33.333333333333
scalar Network500.node390 	qrecord_time 	53355.935090661
scalar Network500.node390 	discovery_resolution_rate 	66.666666666667
scalar Network500.node160 	rate_of_requesters 	1
scalar Network500.node160 	number_of_resources 	27500
scalar Network500.node160 	time_period 	8
scalar Network500.node160 	number_of_messages 	114
scalar Network500.node160 	discovery_latency 	2712
scalar Network500.node160 	number_of_desired_resources 	20
scalar Network500.node160 	query_homogenity_rate 	33.333333333333
scalar Network500.node160 	qrecord_time 	53473.782970006
scalar Network500.node160 	discovery_resolution_rate 	66.666666666667
scalar Network500.node320 	rate_of_requesters 	1
scalar Network500.node320 	number_of_resources 	27500
scalar Network500.node320 	time_period 	9
scalar Network500.node320 	number_of_messages 	48
scalar Network500.node320 	discovery_latency 	2796
scalar Network500.node320 	number_of_desired_resources 	20
scalar Network500.node320 	query_homogenity_rate 	33.333333333333
scalar Network500.node320 	qrecord_time 	53801.03752467
scalar Network500.node320 	discovery_resolution_rate 	66.666666666667
scalar Network500.node320 	rate_of_requesters 	1
scalar Network500.node320 	number_of_resources 	27500
scalar Network500.node320 	time_period 	10
scalar Network500.node320 	number_of_messages 	16
scalar Network500.node320 	discovery_latency 	2844
scalar Network500.node320 	number_of_desired_resources 	20
scalar Network500.node320 	query_homogenity_rate 	33.333333333333
scalar Network500.node320 	qrecord_time 	56017.882473797
scalar Network500.node320 	discovery_resolution_rate 	66.666666666667
scalar Network500.node390 	rate_of_requesters 	1
scalar Network500.node390 	number_of_resources 	27500
scalar Network500.node390 	time_period 	8
scalar Network500.node390 	number_of_messages 	80
scalar Network500.node390 	discovery_latency 	2712
scalar Network500.node390 	number_of_desired_resources 	20
scalar Network500.node390 	query_homogenity_rate 	33.333333333333
scalar Network500.node390 	qrecord_time 	56928.977039872
scalar Network500.node390 	discovery_resolution_rate 	66.666666666667
scalar Network500.node390 	rate_of_requesters 	1
scalar Network500.node390 	number_of_resources 	27500
scalar Network500.node390 	time_period 	10
scalar Network500.node390 	number_of_messages 	34
scalar Network500.node390 	discovery_latency 	2736
scalar Network500.node390 	number_of_desired_resources 	20
scalar Network500.node390 	query_homogenity_rate 	33.333333333333
scalar Network500.node390 	qrecord_time 	59950.813446173
scalar Network500.node390 	discovery_resolution_rate 	66.666666666667
scalar Network500.node390 	rate_of_requesters 	1
scalar Network500.node390 	number_of_resources 	27500
scalar Network500.node390 	time_period 	9
scalar Network500.node390 	number_of_messages 	44
scalar Network500.node390 	discovery_latency 	2952
scalar Network500.node390 	number_of_desired_resources 	20
scalar Network500.node390 	query_homogenity_rate 	33.333333333333
scalar Network500.node390 	qrecord_time 	60057.17168535
scalar Network500.node390 	discovery_resolution_rate 	66.666666666667
scalar Network500.node160 	rate_of_requesters 	1
scalar Network500.node160 	number_of_resources 	27500
scalar Network500.node160 	time_period 	9
scalar Network500.node160 	number_of_messages 	27
scalar Network500.node160 	discovery_latency 	2688
scalar Network500.node160 	number_of_desired_resources 	20
scalar Network500.node160 	query_homogenity_rate 	33.333333333333
scalar Network500.node160 	qrecord_time 	63594.02258011
scalar Network500.node160 	discovery_resolution_rate 	66.666666666667
scalar Network500.node160 	rate_of_requesters 	1
scalar Network500.node160 	number_of_resources 	27500
scalar Network500.node160 	time_period 	10
scalar Network500.node160 	number_of_messages 	50
scalar Network500.node160 	discovery_latency 	2724
scalar Network500.node160 	number_of_desired_resources 	20
scalar Network500.node160 	query_homogenity_rate 	33.333333333333
scalar Network500.node160 	qrecord_time 	67171.161126247
scalar Network500.node160 	discovery_resolution_rate 	66.666666666667
scalar Network500.node260 	rate_of_requesters 	1
scalar Network500.node260 	number_of_resources 	27500
scalar Network500.node260 	time_period 	9
scalar Network500.node260 	number_of_messages 	83
scalar Network500.node260 	discovery_latency 	2880
scalar Network500.node260 	number_of_desired_resources 	20
scalar Network500.node260 	query_homogenity_rate 	33.333333333333
scalar Network500.node260 	qrecord_time 	68005.238009977
scalar Network500.node260 	discovery_resolution_rate 	66.666666666667
scalar Network500.node90 	rate_of_requesters 	1
scalar Network500.node90 	number_of_resources 	27500
scalar Network500.node90 	time_period 	8
scalar Network500.node90 	number_of_messages 	11
scalar Network500.node90 	discovery_latency 	2832
scalar Network500.node90 	number_of_desired_resources 	20
scalar Network500.node90 	query_homogenity_rate 	33.333333333333
scalar Network500.node90 	qrecord_time 	68804.831709365
scalar Network500.node90 	discovery_resolution_rate 	66.666666666667
scalar Network500.node260 	rate_of_requesters 	1
scalar Network500.node260 	number_of_resources 	27500
scalar Network500.node260 	time_period 	10
scalar Network500.node260 	number_of_messages 	49
scalar Network500.node260 	discovery_latency 	2928
scalar Network500.node260 	number_of_desired_resources 	20
scalar Network500.node260 	query_homogenity_rate 	33.333333333333
scalar Network500.node260 	qrecord_time 	69040.544686596
scalar Network500.node260 	discovery_resolution_rate 	66.666666666667
scalar Network500.node90 	rate_of_requesters 	1
scalar Network500.node90 	number_of_resources 	27500
scalar Network500.node90 	time_period 	9
scalar Network500.node90 	number_of_messages 	23
scalar Network500.node90 	discovery_latency 	2808
scalar Network500.node90 	number_of_desired_resources 	20
scalar Network500.node90 	query_homogenity_rate 	33.333333333333
scalar Network500.node90 	qrecord_time 	72219.563118029
scalar Network500.node90 	discovery_resolution_rate 	66.666666666667
scalar Network500.node90 	rate_of_requesters 	1
scalar Network500.node90 	number_of_resources 	27500
scalar Network500.node90 	time_period 	10
scalar Network500.node90 	number_of_messages 	46
scalar Network500.node90 	discovery_latency 	2796
scalar Network500.node90 	number_of_desired_resources 	20
scalar Network500.node90 	query_homogenity_rate 	33.333333333333
scalar Network500.node90 	qrecord_time 	75715.237604772
scalar Network500.node90 	discovery_resolution_rate 	66.666666666667
