version 2
run net500-5-20150323-15:11:41-3467
attr as 6
attr configname net500
attr datetime 20150323-15:11:41
attr dnor 20
attr experiment net500
attr inifile omnetpp.ini
attr iterationvars "$rhdrq=3, $dnor=20, $as=6"
attr iterationvars2 "$rhdrq=3, $dnor=20, $as=6, $repetition=0"
attr measurement "$rhdrq=3, $dnor=20, $as=6"
attr network Network500
attr processid 3467
attr repetition 0
attr replication #0
attr resultdir results
attr rhdrq 3
attr runnumber 5
attr seedset 5

scalar . 	as 	6
scalar . 	dnor 	20
scalar . 	rhdrq 	3
scalar Network500.node70 	rate_of_requesters 	1
scalar Network500.node70 	number_of_resources 	27500
scalar Network500.node70 	time_period 	1
scalar Network500.node70 	number_of_messages 	21
scalar Network500.node70 	discovery_latency 	96
scalar Network500.node70 	number_of_desired_resources 	20
scalar Network500.node70 	query_homogenity_rate 	33.333333333333
scalar Network500.node70 	qrecord_time 	4804
scalar Network500.node70 	discovery_resolution_rate 	100
scalar Network500.node10 	rate_of_requesters 	1
scalar Network500.node10 	number_of_resources 	27500
scalar Network500.node10 	time_period 	1
scalar Network500.node10 	number_of_messages 	21
scalar Network500.node10 	discovery_latency 	144
scalar Network500.node10 	number_of_desired_resources 	20
scalar Network500.node10 	query_homogenity_rate 	33.333333333333
scalar Network500.node10 	qrecord_time 	4816
scalar Network500.node10 	discovery_resolution_rate 	100
scalar Network500.node40 	rate_of_requesters 	1
scalar Network500.node40 	number_of_resources 	27500
scalar Network500.node40 	time_period 	1
scalar Network500.node40 	number_of_messages 	15
scalar Network500.node40 	discovery_latency 	108
scalar Network500.node40 	number_of_desired_resources 	20
scalar Network500.node40 	query_homogenity_rate 	33.333333333333
scalar Network500.node40 	qrecord_time 	4822
scalar Network500.node40 	discovery_resolution_rate 	100
scalar Network500.node270 	rate_of_requesters 	1
scalar Network500.node270 	number_of_resources 	27500
scalar Network500.node270 	time_period 	1
scalar Network500.node270 	number_of_messages 	13
scalar Network500.node270 	discovery_latency 	90
scalar Network500.node270 	number_of_desired_resources 	20
scalar Network500.node270 	query_homogenity_rate 	33.333333333333
scalar Network500.node270 	qrecord_time 	4840
scalar Network500.node270 	discovery_resolution_rate 	100
scalar Network500.node50 	rate_of_requesters 	1
scalar Network500.node50 	number_of_resources 	27500
scalar Network500.node50 	time_period 	1
scalar Network500.node50 	number_of_messages 	13
scalar Network500.node50 	discovery_latency 	96
scalar Network500.node50 	number_of_desired_resources 	20
scalar Network500.node50 	query_homogenity_rate 	33.333333333333
scalar Network500.node50 	qrecord_time 	4852
scalar Network500.node50 	discovery_resolution_rate 	100
scalar Network500.node490 	rate_of_requesters 	1
scalar Network500.node490 	number_of_resources 	27500
scalar Network500.node490 	time_period 	1
scalar Network500.node490 	number_of_messages 	23
scalar Network500.node490 	discovery_latency 	156
scalar Network500.node490 	number_of_desired_resources 	20
scalar Network500.node490 	query_homogenity_rate 	33.333333333333
scalar Network500.node490 	qrecord_time 	4864
scalar Network500.node490 	discovery_resolution_rate 	100
scalar Network500.node250 	rate_of_requesters 	1
scalar Network500.node250 	number_of_resources 	27500
scalar Network500.node250 	time_period 	1
scalar Network500.node250 	number_of_messages 	18
scalar Network500.node250 	discovery_latency 	120
scalar Network500.node250 	number_of_desired_resources 	20
scalar Network500.node250 	query_homogenity_rate 	33.333333333333
scalar Network500.node250 	qrecord_time 	4876
scalar Network500.node250 	discovery_resolution_rate 	100
scalar Network500.node400 	rate_of_requesters 	1
scalar Network500.node400 	number_of_resources 	27500
scalar Network500.node400 	time_period 	1
scalar Network500.node400 	number_of_messages 	12
scalar Network500.node400 	discovery_latency 	102
scalar Network500.node400 	number_of_desired_resources 	20
scalar Network500.node400 	query_homogenity_rate 	33.333333333333
scalar Network500.node400 	qrecord_time 	4894
scalar Network500.node400 	discovery_resolution_rate 	100
scalar Network500.node480 	rate_of_requesters 	1
scalar Network500.node480 	number_of_resources 	27500
scalar Network500.node480 	time_period 	1
scalar Network500.node480 	number_of_messages 	15
scalar Network500.node480 	discovery_latency 	156
scalar Network500.node480 	number_of_desired_resources 	20
scalar Network500.node480 	query_homogenity_rate 	33.333333333333
scalar Network500.node480 	qrecord_time 	4906
scalar Network500.node480 	discovery_resolution_rate 	100
scalar Network500.node450 	rate_of_requesters 	1
scalar Network500.node450 	number_of_resources 	27500
scalar Network500.node450 	time_period 	1
scalar Network500.node450 	number_of_messages 	22
scalar Network500.node450 	discovery_latency 	192
scalar Network500.node450 	number_of_desired_resources 	20
scalar Network500.node450 	query_homogenity_rate 	33.333333333333
scalar Network500.node450 	qrecord_time 	4906
scalar Network500.node450 	discovery_resolution_rate 	100
scalar Network500.node290 	rate_of_requesters 	1
scalar Network500.node290 	number_of_resources 	27500
scalar Network500.node290 	time_period 	1
scalar Network500.node290 	number_of_messages 	22
scalar Network500.node290 	discovery_latency 	192
scalar Network500.node290 	number_of_desired_resources 	20
scalar Network500.node290 	query_homogenity_rate 	33.333333333333
scalar Network500.node290 	qrecord_time 	4924
scalar Network500.node290 	discovery_resolution_rate 	100
scalar Network500.node340 	rate_of_requesters 	1
scalar Network500.node340 	number_of_resources 	27500
scalar Network500.node340 	time_period 	1
scalar Network500.node340 	number_of_messages 	22
scalar Network500.node340 	discovery_latency 	180
scalar Network500.node340 	number_of_desired_resources 	20
scalar Network500.node340 	query_homogenity_rate 	33.333333333333
scalar Network500.node340 	qrecord_time 	4930
scalar Network500.node340 	discovery_resolution_rate 	100
scalar Network500.node460 	rate_of_requesters 	1
scalar Network500.node460 	number_of_resources 	27500
scalar Network500.node460 	time_period 	1
scalar Network500.node460 	number_of_messages 	23
scalar Network500.node460 	discovery_latency 	192
scalar Network500.node460 	number_of_desired_resources 	20
scalar Network500.node460 	query_homogenity_rate 	33.333333333333
scalar Network500.node460 	qrecord_time 	4930
scalar Network500.node460 	discovery_resolution_rate 	100
scalar Network500.node60 	rate_of_requesters 	1
scalar Network500.node60 	number_of_resources 	27500
scalar Network500.node60 	time_period 	1
scalar Network500.node60 	number_of_messages 	21
scalar Network500.node60 	discovery_latency 	216
scalar Network500.node60 	number_of_desired_resources 	20
scalar Network500.node60 	query_homogenity_rate 	33.333333333333
scalar Network500.node60 	qrecord_time 	4936
scalar Network500.node60 	discovery_resolution_rate 	100
scalar Network500.node220 	rate_of_requesters 	1
scalar Network500.node220 	number_of_resources 	27500
scalar Network500.node220 	time_period 	1
scalar Network500.node220 	number_of_messages 	33
scalar Network500.node220 	discovery_latency 	252
scalar Network500.node220 	number_of_desired_resources 	20
scalar Network500.node220 	query_homogenity_rate 	33.333333333333
scalar Network500.node220 	qrecord_time 	4942
scalar Network500.node220 	discovery_resolution_rate 	100
scalar Network500.node280 	rate_of_requesters 	1
scalar Network500.node280 	number_of_resources 	27500
scalar Network500.node280 	time_period 	1
scalar Network500.node280 	number_of_messages 	31
scalar Network500.node280 	discovery_latency 	264
scalar Network500.node280 	number_of_desired_resources 	20
scalar Network500.node280 	query_homogenity_rate 	33.333333333333
scalar Network500.node280 	qrecord_time 	4954
scalar Network500.node280 	discovery_resolution_rate 	100
scalar Network500.node90 	rate_of_requesters 	1
scalar Network500.node90 	number_of_resources 	27500
scalar Network500.node90 	time_period 	1
scalar Network500.node90 	number_of_messages 	21
scalar Network500.node90 	discovery_latency 	252
scalar Network500.node90 	number_of_desired_resources 	20
scalar Network500.node90 	query_homogenity_rate 	33.333333333333
scalar Network500.node90 	qrecord_time 	4960
scalar Network500.node90 	discovery_resolution_rate 	100
scalar Network500.node100 	rate_of_requesters 	1
scalar Network500.node100 	number_of_resources 	27500
scalar Network500.node100 	time_period 	1
scalar Network500.node100 	number_of_messages 	26
scalar Network500.node100 	discovery_latency 	252
scalar Network500.node100 	number_of_desired_resources 	20
scalar Network500.node100 	query_homogenity_rate 	33.333333333333
scalar Network500.node100 	qrecord_time 	4966
scalar Network500.node100 	discovery_resolution_rate 	100
scalar Network500.node200 	rate_of_requesters 	1
scalar Network500.node200 	number_of_resources 	27500
scalar Network500.node200 	time_period 	1
scalar Network500.node200 	number_of_messages 	56
scalar Network500.node200 	discovery_latency 	324
scalar Network500.node200 	number_of_desired_resources 	20
scalar Network500.node200 	query_homogenity_rate 	33.333333333333
scalar Network500.node200 	qrecord_time 	4966
scalar Network500.node200 	discovery_resolution_rate 	100
scalar Network500.node190 	rate_of_requesters 	1
scalar Network500.node190 	number_of_resources 	27500
scalar Network500.node190 	time_period 	1
scalar Network500.node190 	number_of_messages 	17
scalar Network500.node190 	discovery_latency 	216
scalar Network500.node190 	number_of_desired_resources 	20
scalar Network500.node190 	query_homogenity_rate 	33.333333333333
scalar Network500.node190 	qrecord_time 	4966
scalar Network500.node190 	discovery_resolution_rate 	100
scalar Network500.node330 	rate_of_requesters 	1
scalar Network500.node330 	number_of_resources 	27500
scalar Network500.node330 	time_period 	1
scalar Network500.node330 	number_of_messages 	27
scalar Network500.node330 	discovery_latency 	252
scalar Network500.node330 	number_of_desired_resources 	20
scalar Network500.node330 	query_homogenity_rate 	33.333333333333
scalar Network500.node330 	qrecord_time 	4972
scalar Network500.node330 	discovery_resolution_rate 	100
scalar Network500.node320 	rate_of_requesters 	1
scalar Network500.node320 	number_of_resources 	27500
scalar Network500.node320 	time_period 	1
scalar Network500.node320 	number_of_messages 	48
scalar Network500.node320 	discovery_latency 	276
scalar Network500.node320 	number_of_desired_resources 	20
scalar Network500.node320 	query_homogenity_rate 	33.333333333333
scalar Network500.node320 	qrecord_time 	4984
scalar Network500.node320 	discovery_resolution_rate 	100
scalar Network500.node470 	rate_of_requesters 	1
scalar Network500.node470 	number_of_resources 	27500
scalar Network500.node470 	time_period 	1
scalar Network500.node470 	number_of_messages 	27
scalar Network500.node470 	discovery_latency 	270
scalar Network500.node470 	number_of_desired_resources 	20
scalar Network500.node470 	query_homogenity_rate 	33.333333333333
scalar Network500.node470 	qrecord_time 	5002
scalar Network500.node470 	discovery_resolution_rate 	100
scalar Network500.node360 	rate_of_requesters 	1
scalar Network500.node360 	number_of_resources 	27500
scalar Network500.node360 	time_period 	1
scalar Network500.node360 	number_of_messages 	21
scalar Network500.node360 	discovery_latency 	198
scalar Network500.node360 	number_of_desired_resources 	20
scalar Network500.node360 	query_homogenity_rate 	33.333333333333
scalar Network500.node360 	qrecord_time 	5008
scalar Network500.node360 	discovery_resolution_rate 	100
scalar Network500.node130 	rate_of_requesters 	1
scalar Network500.node130 	number_of_resources 	27500
scalar Network500.node130 	time_period 	1
scalar Network500.node130 	number_of_messages 	35
scalar Network500.node130 	discovery_latency 	282
scalar Network500.node130 	number_of_desired_resources 	20
scalar Network500.node130 	query_homogenity_rate 	33.333333333333
scalar Network500.node130 	qrecord_time 	5014
scalar Network500.node130 	discovery_resolution_rate 	100
scalar Network500.node310 	rate_of_requesters 	1
scalar Network500.node310 	number_of_resources 	27500
scalar Network500.node310 	time_period 	1
scalar Network500.node310 	number_of_messages 	33
scalar Network500.node310 	discovery_latency 	300
scalar Network500.node310 	number_of_desired_resources 	20
scalar Network500.node310 	query_homogenity_rate 	33.333333333333
scalar Network500.node310 	qrecord_time 	5014
scalar Network500.node310 	discovery_resolution_rate 	100
scalar Network500.node430 	rate_of_requesters 	1
scalar Network500.node430 	number_of_resources 	27500
scalar Network500.node430 	time_period 	1
scalar Network500.node430 	number_of_messages 	30
scalar Network500.node430 	discovery_latency 	264
scalar Network500.node430 	number_of_desired_resources 	20
scalar Network500.node430 	query_homogenity_rate 	33.333333333333
scalar Network500.node430 	qrecord_time 	5014
scalar Network500.node430 	discovery_resolution_rate 	100
scalar Network500.node210 	rate_of_requesters 	1
scalar Network500.node210 	number_of_resources 	27500
scalar Network500.node210 	time_period 	1
scalar Network500.node210 	number_of_messages 	24
scalar Network500.node210 	discovery_latency 	234
scalar Network500.node210 	number_of_desired_resources 	20
scalar Network500.node210 	query_homogenity_rate 	33.333333333333
scalar Network500.node210 	qrecord_time 	5026
scalar Network500.node210 	discovery_resolution_rate 	100
scalar Network500.node260 	rate_of_requesters 	1
scalar Network500.node260 	number_of_resources 	27500
scalar Network500.node260 	time_period 	1
scalar Network500.node260 	number_of_messages 	57
scalar Network500.node260 	discovery_latency 	336
scalar Network500.node260 	number_of_desired_resources 	20
scalar Network500.node260 	query_homogenity_rate 	33.333333333333
scalar Network500.node260 	qrecord_time 	5032
scalar Network500.node260 	discovery_resolution_rate 	100
scalar Network500.node170 	rate_of_requesters 	1
scalar Network500.node170 	number_of_resources 	27500
scalar Network500.node170 	time_period 	1
scalar Network500.node170 	number_of_messages 	28
scalar Network500.node170 	discovery_latency 	336
scalar Network500.node170 	number_of_desired_resources 	20
scalar Network500.node170 	query_homogenity_rate 	33.333333333333
scalar Network500.node170 	qrecord_time 	5056
scalar Network500.node170 	discovery_resolution_rate 	100
scalar Network500.node140 	rate_of_requesters 	1
scalar Network500.node140 	number_of_resources 	27500
scalar Network500.node140 	time_period 	1
scalar Network500.node140 	number_of_messages 	36
scalar Network500.node140 	discovery_latency 	372
scalar Network500.node140 	number_of_desired_resources 	20
scalar Network500.node140 	query_homogenity_rate 	33.333333333333
scalar Network500.node140 	qrecord_time 	5068
scalar Network500.node140 	discovery_resolution_rate 	100
scalar Network500.node370 	rate_of_requesters 	1
scalar Network500.node370 	number_of_resources 	27500
scalar Network500.node370 	time_period 	1
scalar Network500.node370 	number_of_messages 	31
scalar Network500.node370 	discovery_latency 	324
scalar Network500.node370 	number_of_desired_resources 	20
scalar Network500.node370 	query_homogenity_rate 	33.333333333333
scalar Network500.node370 	qrecord_time 	5092
scalar Network500.node370 	discovery_resolution_rate 	100
scalar Network500.node160 	rate_of_requesters 	1
scalar Network500.node160 	number_of_resources 	27500
scalar Network500.node160 	time_period 	1
scalar Network500.node160 	number_of_messages 	42
scalar Network500.node160 	discovery_latency 	354
scalar Network500.node160 	number_of_desired_resources 	20
scalar Network500.node160 	query_homogenity_rate 	33.333333333333
scalar Network500.node160 	qrecord_time 	5092
scalar Network500.node160 	discovery_resolution_rate 	100
scalar Network500.node230 	rate_of_requesters 	1
scalar Network500.node230 	number_of_resources 	27500
scalar Network500.node230 	time_period 	1
scalar Network500.node230 	number_of_messages 	42
scalar Network500.node230 	discovery_latency 	354
scalar Network500.node230 	number_of_desired_resources 	20
scalar Network500.node230 	query_homogenity_rate 	33.333333333333
scalar Network500.node230 	qrecord_time 	5110
scalar Network500.node230 	discovery_resolution_rate 	100
scalar Network500.node350 	rate_of_requesters 	1
scalar Network500.node350 	number_of_resources 	27500
scalar Network500.node350 	time_period 	1
scalar Network500.node350 	number_of_messages 	27
scalar Network500.node350 	discovery_latency 	324
scalar Network500.node350 	number_of_desired_resources 	20
scalar Network500.node350 	query_homogenity_rate 	33.333333333333
scalar Network500.node350 	qrecord_time 	5116
scalar Network500.node350 	discovery_resolution_rate 	100
scalar Network500.node410 	rate_of_requesters 	1
scalar Network500.node410 	number_of_resources 	27500
scalar Network500.node410 	time_period 	1
scalar Network500.node410 	number_of_messages 	51
scalar Network500.node410 	discovery_latency 	360
scalar Network500.node410 	number_of_desired_resources 	20
scalar Network500.node410 	query_homogenity_rate 	33.333333333333
scalar Network500.node410 	qrecord_time 	5128
scalar Network500.node410 	discovery_resolution_rate 	100
scalar Network500.node120 	rate_of_requesters 	1
scalar Network500.node120 	number_of_resources 	27500
scalar Network500.node120 	time_period 	1
scalar Network500.node120 	number_of_messages 	29
scalar Network500.node120 	discovery_latency 	402
scalar Network500.node120 	number_of_desired_resources 	20
scalar Network500.node120 	query_homogenity_rate 	33.333333333333
scalar Network500.node120 	qrecord_time 	5134
scalar Network500.node120 	discovery_resolution_rate 	100
scalar Network500.node30 	rate_of_requesters 	1
scalar Network500.node30 	number_of_resources 	27500
scalar Network500.node30 	time_period 	1
scalar Network500.node30 	number_of_messages 	35
scalar Network500.node30 	discovery_latency 	426
scalar Network500.node30 	number_of_desired_resources 	20
scalar Network500.node30 	query_homogenity_rate 	33.333333333333
scalar Network500.node30 	qrecord_time 	5152
scalar Network500.node30 	discovery_resolution_rate 	100
scalar Network500.node80 	rate_of_requesters 	1
scalar Network500.node80 	number_of_resources 	27500
scalar Network500.node80 	time_period 	1
scalar Network500.node80 	number_of_messages 	51
scalar Network500.node80 	discovery_latency 	486
scalar Network500.node80 	number_of_desired_resources 	20
scalar Network500.node80 	query_homogenity_rate 	33.333333333333
scalar Network500.node80 	qrecord_time 	5152
scalar Network500.node80 	discovery_resolution_rate 	100
scalar Network500.node20 	rate_of_requesters 	1
scalar Network500.node20 	number_of_resources 	27500
scalar Network500.node20 	time_period 	1
scalar Network500.node20 	number_of_messages 	63
scalar Network500.node20 	discovery_latency 	498
scalar Network500.node20 	number_of_desired_resources 	20
scalar Network500.node20 	query_homogenity_rate 	33.333333333333
scalar Network500.node20 	qrecord_time 	5188
scalar Network500.node20 	discovery_resolution_rate 	100
scalar Network500.node180 	rate_of_requesters 	1
scalar Network500.node180 	number_of_resources 	27500
scalar Network500.node180 	time_period 	1
scalar Network500.node180 	number_of_messages 	48
scalar Network500.node180 	discovery_latency 	516
scalar Network500.node180 	number_of_desired_resources 	20
scalar Network500.node180 	query_homogenity_rate 	33.333333333333
scalar Network500.node180 	qrecord_time 	5188
scalar Network500.node180 	discovery_resolution_rate 	100
scalar Network500.node390 	rate_of_requesters 	1
scalar Network500.node390 	number_of_resources 	27500
scalar Network500.node390 	time_period 	1
scalar Network500.node390 	number_of_messages 	44
scalar Network500.node390 	discovery_latency 	510
scalar Network500.node390 	number_of_desired_resources 	20
scalar Network500.node390 	query_homogenity_rate 	33.333333333333
scalar Network500.node390 	qrecord_time 	5194
scalar Network500.node390 	discovery_resolution_rate 	100
scalar Network500.node300 	rate_of_requesters 	1
scalar Network500.node300 	number_of_resources 	27500
scalar Network500.node300 	time_period 	1
scalar Network500.node300 	number_of_messages 	27
scalar Network500.node300 	discovery_latency 	390
scalar Network500.node300 	number_of_desired_resources 	20
scalar Network500.node300 	query_homogenity_rate 	33.333333333333
scalar Network500.node300 	qrecord_time 	5224
scalar Network500.node300 	discovery_resolution_rate 	100
scalar Network500.node0 	rate_of_requesters 	1
scalar Network500.node0 	number_of_resources 	27500
scalar Network500.node0 	time_period 	1
scalar Network500.node0 	number_of_messages 	45
scalar Network500.node0 	discovery_latency 	516
scalar Network500.node0 	number_of_desired_resources 	20
scalar Network500.node0 	query_homogenity_rate 	33.333333333333
scalar Network500.node0 	qrecord_time 	5314
scalar Network500.node0 	discovery_resolution_rate 	100
scalar Network500.node150 	rate_of_requesters 	1
scalar Network500.node150 	number_of_resources 	27500
scalar Network500.node150 	time_period 	1
scalar Network500.node150 	number_of_messages 	56
scalar Network500.node150 	discovery_latency 	558
scalar Network500.node150 	number_of_desired_resources 	20
scalar Network500.node150 	query_homogenity_rate 	33.333333333333
scalar Network500.node150 	qrecord_time 	5314
scalar Network500.node150 	discovery_resolution_rate 	100
scalar Network500.node380 	rate_of_requesters 	1
scalar Network500.node380 	number_of_resources 	27500
scalar Network500.node380 	time_period 	1
scalar Network500.node380 	number_of_messages 	73
scalar Network500.node380 	discovery_latency 	648
scalar Network500.node380 	number_of_desired_resources 	20
scalar Network500.node380 	query_homogenity_rate 	33.333333333333
scalar Network500.node380 	qrecord_time 	5344
scalar Network500.node380 	discovery_resolution_rate 	100
scalar Network500.node420 	rate_of_requesters 	1
scalar Network500.node420 	number_of_resources 	27500
scalar Network500.node420 	time_period 	1
scalar Network500.node420 	number_of_messages 	32
scalar Network500.node420 	discovery_latency 	498
scalar Network500.node420 	number_of_desired_resources 	20
scalar Network500.node420 	query_homogenity_rate 	33.333333333333
scalar Network500.node420 	qrecord_time 	5350
scalar Network500.node420 	discovery_resolution_rate 	100
scalar Network500.node110 	rate_of_requesters 	1
scalar Network500.node110 	number_of_resources 	27500
scalar Network500.node110 	time_period 	1
scalar Network500.node110 	number_of_messages 	49
scalar Network500.node110 	discovery_latency 	702
scalar Network500.node110 	number_of_desired_resources 	20
scalar Network500.node110 	query_homogenity_rate 	33.333333333333
scalar Network500.node110 	qrecord_time 	5410
scalar Network500.node110 	discovery_resolution_rate 	100
scalar Network500.node440 	rate_of_requesters 	1
scalar Network500.node440 	number_of_resources 	27500
scalar Network500.node440 	time_period 	1
scalar Network500.node440 	number_of_messages 	86
scalar Network500.node440 	discovery_latency 	828
scalar Network500.node440 	number_of_desired_resources 	20
scalar Network500.node440 	query_homogenity_rate 	33.333333333333
scalar Network500.node440 	qrecord_time 	5644
scalar Network500.node440 	discovery_resolution_rate 	100
scalar Network500.node240 	rate_of_requesters 	1
scalar Network500.node240 	number_of_resources 	27500
scalar Network500.node240 	time_period 	1
scalar Network500.node240 	number_of_messages 	86
scalar Network500.node240 	discovery_latency 	828
scalar Network500.node240 	number_of_desired_resources 	20
scalar Network500.node240 	query_homogenity_rate 	33.333333333333
scalar Network500.node240 	qrecord_time 	5662
scalar Network500.node240 	discovery_resolution_rate 	100
scalar Network500.node260 	rate_of_requesters 	1
scalar Network500.node260 	number_of_resources 	27500
scalar Network500.node260 	time_period 	2
scalar Network500.node260 	number_of_messages 	34
scalar Network500.node260 	discovery_latency 	282
scalar Network500.node260 	number_of_desired_resources 	20
scalar Network500.node260 	query_homogenity_rate 	33.333333333333
scalar Network500.node260 	qrecord_time 	6979
scalar Network500.node260 	discovery_resolution_rate 	100
scalar Network500.node320 	rate_of_requesters 	1
scalar Network500.node320 	number_of_resources 	27500
scalar Network500.node320 	time_period 	2
scalar Network500.node320 	number_of_messages 	53
scalar Network500.node320 	discovery_latency 	324
scalar Network500.node320 	number_of_desired_resources 	20
scalar Network500.node320 	query_homogenity_rate 	33.333333333333
scalar Network500.node320 	qrecord_time 	7137
scalar Network500.node320 	discovery_resolution_rate 	100
scalar Network500.node370 	rate_of_requesters 	1
scalar Network500.node370 	number_of_resources 	27500
scalar Network500.node370 	time_period 	2
scalar Network500.node370 	number_of_messages 	58
scalar Network500.node370 	discovery_latency 	540
scalar Network500.node370 	number_of_desired_resources 	20
scalar Network500.node370 	query_homogenity_rate 	33.333333333333
scalar Network500.node370 	qrecord_time 	7486.999999999
scalar Network500.node370 	discovery_resolution_rate 	100
scalar Network500.node310 	rate_of_requesters 	1
scalar Network500.node310 	number_of_resources 	27500
scalar Network500.node310 	time_period 	2
scalar Network500.node310 	number_of_messages 	67
scalar Network500.node310 	discovery_latency 	702
scalar Network500.node310 	number_of_desired_resources 	20
scalar Network500.node310 	query_homogenity_rate 	33.333333333333
scalar Network500.node310 	qrecord_time 	7524
scalar Network500.node310 	discovery_resolution_rate 	100
scalar Network500.node450 	rate_of_requesters 	1
scalar Network500.node450 	number_of_resources 	27500
scalar Network500.node450 	time_period 	2
scalar Network500.node450 	number_of_messages 	61
scalar Network500.node450 	discovery_latency 	612
scalar Network500.node450 	number_of_desired_resources 	20
scalar Network500.node450 	query_homogenity_rate 	33.333333333333
scalar Network500.node450 	qrecord_time 	7652
scalar Network500.node450 	discovery_resolution_rate 	100
scalar Network500.node200 	rate_of_requesters 	1
scalar Network500.node200 	number_of_resources 	27500
scalar Network500.node200 	time_period 	2
scalar Network500.node200 	number_of_messages 	101
scalar Network500.node200 	discovery_latency 	972
scalar Network500.node200 	number_of_desired_resources 	20
scalar Network500.node200 	query_homogenity_rate 	33.333333333333
scalar Network500.node200 	qrecord_time 	7962
scalar Network500.node200 	discovery_resolution_rate 	100
scalar Network500.node360 	rate_of_requesters 	1
scalar Network500.node360 	number_of_resources 	27500
scalar Network500.node360 	time_period 	2
scalar Network500.node360 	number_of_messages 	115
scalar Network500.node360 	discovery_latency 	1092
scalar Network500.node360 	number_of_desired_resources 	20
scalar Network500.node360 	query_homogenity_rate 	33.333333333333
scalar Network500.node360 	qrecord_time 	8293
scalar Network500.node360 	discovery_resolution_rate 	100
scalar Network500.node130 	rate_of_requesters 	1
scalar Network500.node130 	number_of_resources 	27500
scalar Network500.node130 	time_period 	2
scalar Network500.node130 	number_of_messages 	102
scalar Network500.node130 	discovery_latency 	1272
scalar Network500.node130 	number_of_desired_resources 	20
scalar Network500.node130 	query_homogenity_rate 	33.333333333333
scalar Network500.node130 	qrecord_time 	8381
scalar Network500.node130 	discovery_resolution_rate 	100
scalar Network500.node460 	rate_of_requesters 	1
scalar Network500.node460 	number_of_resources 	27500
scalar Network500.node460 	time_period 	2
scalar Network500.node460 	number_of_messages 	116
scalar Network500.node460 	discovery_latency 	1110
scalar Network500.node460 	number_of_desired_resources 	20
scalar Network500.node460 	query_homogenity_rate 	33.333333333333
scalar Network500.node460 	qrecord_time 	8571
scalar Network500.node460 	discovery_resolution_rate 	100
scalar Network500.node250 	rate_of_requesters 	1
scalar Network500.node250 	number_of_resources 	27500
scalar Network500.node250 	time_period 	2
scalar Network500.node250 	number_of_messages 	131
scalar Network500.node250 	discovery_latency 	1542
scalar Network500.node250 	number_of_desired_resources 	20
scalar Network500.node250 	query_homogenity_rate 	33.333333333333
scalar Network500.node250 	qrecord_time 	8717
scalar Network500.node250 	discovery_resolution_rate 	100
scalar Network500.node60 	rate_of_requesters 	1
scalar Network500.node60 	number_of_resources 	27500
scalar Network500.node60 	time_period 	2
scalar Network500.node60 	number_of_messages 	121
scalar Network500.node60 	discovery_latency 	1194
scalar Network500.node60 	number_of_desired_resources 	20
scalar Network500.node60 	query_homogenity_rate 	33.333333333333
scalar Network500.node60 	qrecord_time 	8728
scalar Network500.node60 	discovery_resolution_rate 	100
scalar Network500.node220 	rate_of_requesters 	1
scalar Network500.node220 	number_of_resources 	27500
scalar Network500.node220 	time_period 	2
scalar Network500.node220 	number_of_messages 	126
scalar Network500.node220 	discovery_latency 	1470
scalar Network500.node220 	number_of_desired_resources 	20
scalar Network500.node220 	query_homogenity_rate 	33.333333333333
scalar Network500.node220 	qrecord_time 	8824
scalar Network500.node220 	discovery_resolution_rate 	100
scalar Network500.node470 	rate_of_requesters 	1
scalar Network500.node470 	number_of_resources 	27500
scalar Network500.node470 	time_period 	2
scalar Network500.node470 	number_of_messages 	136
scalar Network500.node470 	discovery_latency 	1614
scalar Network500.node470 	number_of_desired_resources 	20
scalar Network500.node470 	query_homogenity_rate 	33.333333333333
scalar Network500.node470 	qrecord_time 	9035
scalar Network500.node470 	discovery_resolution_rate 	100
scalar Network500.node20 	rate_of_requesters 	1
scalar Network500.node20 	number_of_resources 	27500
scalar Network500.node20 	time_period 	2
scalar Network500.node20 	number_of_messages 	204
scalar Network500.node20 	discovery_latency 	1698
scalar Network500.node20 	number_of_desired_resources 	20
scalar Network500.node20 	query_homogenity_rate 	33.333333333333
scalar Network500.node20 	qrecord_time 	9250
scalar Network500.node20 	discovery_resolution_rate 	100
scalar Network500.node240 	rate_of_requesters 	1
scalar Network500.node240 	number_of_resources 	27500
scalar Network500.node240 	time_period 	2
scalar Network500.node240 	number_of_messages 	139
scalar Network500.node240 	discovery_latency 	1986
scalar Network500.node240 	number_of_desired_resources 	20
scalar Network500.node240 	query_homogenity_rate 	33.333333333333
scalar Network500.node240 	qrecord_time 	9373
scalar Network500.node240 	discovery_resolution_rate 	100
scalar Network500.node90 	rate_of_requesters 	1
scalar Network500.node90 	number_of_resources 	27500
scalar Network500.node90 	time_period 	2
scalar Network500.node90 	number_of_messages 	212
scalar Network500.node90 	discovery_latency 	2538
scalar Network500.node90 	number_of_desired_resources 	20
scalar Network500.node90 	query_homogenity_rate 	33.333333333333
scalar Network500.node90 	qrecord_time 	9872
scalar Network500.node90 	discovery_resolution_rate 	100
scalar Network500.node490 	rate_of_requesters 	1
scalar Network500.node490 	number_of_resources 	27500
scalar Network500.node490 	time_period 	2
scalar Network500.node490 	number_of_messages 	273
scalar Network500.node490 	discovery_latency 	2400
scalar Network500.node490 	number_of_desired_resources 	20
scalar Network500.node490 	query_homogenity_rate 	33.333333333333
scalar Network500.node490 	qrecord_time 	10078
scalar Network500.node490 	discovery_resolution_rate 	100
scalar Network500.node410 	rate_of_requesters 	1
scalar Network500.node410 	number_of_resources 	27500
scalar Network500.node410 	time_period 	2
scalar Network500.node410 	number_of_messages 	356
scalar Network500.node410 	discovery_latency 	2472
scalar Network500.node410 	number_of_desired_resources 	20
scalar Network500.node410 	query_homogenity_rate 	33.333333333333
scalar Network500.node410 	qrecord_time 	10083
scalar Network500.node410 	discovery_resolution_rate 	100
scalar Network500.node210 	rate_of_requesters 	1
scalar Network500.node210 	number_of_resources 	27500
scalar Network500.node210 	time_period 	2
scalar Network500.node210 	number_of_messages 	211
scalar Network500.node210 	discovery_latency 	2532
scalar Network500.node210 	number_of_desired_resources 	20
scalar Network500.node210 	query_homogenity_rate 	33.333333333333
scalar Network500.node210 	qrecord_time 	10088
scalar Network500.node210 	discovery_resolution_rate 	100
scalar Network500.node280 	rate_of_requesters 	1
scalar Network500.node280 	number_of_resources 	27500
scalar Network500.node280 	time_period 	2
scalar Network500.node280 	number_of_messages 	283
scalar Network500.node280 	discovery_latency 	2538
scalar Network500.node280 	number_of_desired_resources 	20
scalar Network500.node280 	query_homogenity_rate 	33.333333333333
scalar Network500.node280 	qrecord_time 	10091
scalar Network500.node280 	discovery_resolution_rate 	100
scalar Network500.node230 	rate_of_requesters 	1
scalar Network500.node230 	number_of_resources 	27500
scalar Network500.node230 	time_period 	2
scalar Network500.node230 	number_of_messages 	339
scalar Network500.node230 	discovery_latency 	3348
scalar Network500.node230 	number_of_desired_resources 	20
scalar Network500.node230 	query_homogenity_rate 	33.333333333333
scalar Network500.node230 	qrecord_time 	10854
scalar Network500.node230 	discovery_resolution_rate 	100
scalar Network500.node270 	rate_of_requesters 	1
scalar Network500.node270 	number_of_resources 	27500
scalar Network500.node270 	time_period 	2
scalar Network500.node270 	number_of_messages 	367
scalar Network500.node270 	discovery_latency 	3462
scalar Network500.node270 	number_of_desired_resources 	20
scalar Network500.node270 	query_homogenity_rate 	33.333333333333
scalar Network500.node270 	qrecord_time 	11154
scalar Network500.node270 	discovery_resolution_rate 	100
scalar Network500.node380 	rate_of_requesters 	1
scalar Network500.node380 	number_of_resources 	27500
scalar Network500.node380 	time_period 	2
scalar Network500.node380 	number_of_messages 	354
scalar Network500.node380 	discovery_latency 	3090
scalar Network500.node380 	number_of_desired_resources 	20
scalar Network500.node380 	query_homogenity_rate 	33.333333333333
scalar Network500.node380 	qrecord_time 	11460
scalar Network500.node380 	discovery_resolution_rate 	100
scalar Network500.node10 	rate_of_requesters 	1
scalar Network500.node10 	number_of_resources 	27500
scalar Network500.node10 	time_period 	2
scalar Network500.node10 	number_of_messages 	425
scalar Network500.node10 	discovery_latency 	3588
scalar Network500.node10 	number_of_desired_resources 	20
scalar Network500.node10 	query_homogenity_rate 	33.333333333333
scalar Network500.node10 	qrecord_time 	11898
scalar Network500.node10 	discovery_resolution_rate 	100
scalar Network500.node140 	rate_of_requesters 	1
scalar Network500.node140 	number_of_resources 	27500
scalar Network500.node140 	time_period 	2
scalar Network500.node140 	number_of_messages 	192
scalar Network500.node140 	discovery_latency 	4338
scalar Network500.node140 	number_of_desired_resources 	20
scalar Network500.node140 	query_homogenity_rate 	33.333333333333
scalar Network500.node140 	qrecord_time 	11911
scalar Network500.node140 	discovery_resolution_rate 	66.666666666667
scalar Network500.node340 	rate_of_requesters 	1
scalar Network500.node340 	number_of_resources 	27500
scalar Network500.node340 	time_period 	2
scalar Network500.node340 	number_of_messages 	393
scalar Network500.node340 	discovery_latency 	4290
scalar Network500.node340 	number_of_desired_resources 	20
scalar Network500.node340 	query_homogenity_rate 	33.333333333333
scalar Network500.node340 	qrecord_time 	12023
scalar Network500.node340 	discovery_resolution_rate 	83.333333333333
scalar Network500.node110 	rate_of_requesters 	1
scalar Network500.node110 	number_of_resources 	27500
scalar Network500.node110 	time_period 	2
scalar Network500.node110 	number_of_messages 	162
scalar Network500.node110 	discovery_latency 	4302
scalar Network500.node110 	number_of_desired_resources 	20
scalar Network500.node110 	query_homogenity_rate 	33.333333333333
scalar Network500.node110 	qrecord_time 	12077
scalar Network500.node110 	discovery_resolution_rate 	66.666666666667
scalar Network500.node70 	rate_of_requesters 	1
scalar Network500.node70 	number_of_resources 	27500
scalar Network500.node70 	time_period 	2
scalar Network500.node70 	number_of_messages 	128
scalar Network500.node70 	discovery_latency 	4428
scalar Network500.node70 	number_of_desired_resources 	20
scalar Network500.node70 	query_homogenity_rate 	33.333333333333
scalar Network500.node70 	qrecord_time 	12684
scalar Network500.node70 	discovery_resolution_rate 	33.333333333333
scalar Network500.node390 	rate_of_requesters 	1
scalar Network500.node390 	number_of_resources 	27500
scalar Network500.node390 	time_period 	2
scalar Network500.node390 	number_of_messages 	145
scalar Network500.node390 	discovery_latency 	4122
scalar Network500.node390 	number_of_desired_resources 	20
scalar Network500.node390 	query_homogenity_rate 	33.333333333333
scalar Network500.node390 	qrecord_time 	12895
scalar Network500.node390 	discovery_resolution_rate 	66.666666666667
scalar Network500.node120 	rate_of_requesters 	1
scalar Network500.node120 	number_of_resources 	27500
scalar Network500.node120 	time_period 	2
scalar Network500.node120 	number_of_messages 	333
scalar Network500.node120 	discovery_latency 	4338
scalar Network500.node120 	number_of_desired_resources 	20
scalar Network500.node120 	query_homogenity_rate 	33.333333333333
scalar Network500.node120 	qrecord_time 	12944
scalar Network500.node120 	discovery_resolution_rate 	66.666666666667
scalar Network500.node300 	rate_of_requesters 	1
scalar Network500.node300 	number_of_resources 	27500
scalar Network500.node300 	time_period 	2
scalar Network500.node300 	number_of_messages 	361
scalar Network500.node300 	discovery_latency 	4488
scalar Network500.node300 	number_of_desired_resources 	20
scalar Network500.node300 	query_homogenity_rate 	33.333333333333
scalar Network500.node300 	qrecord_time 	12965
scalar Network500.node300 	discovery_resolution_rate 	50
scalar Network500.node30 	rate_of_requesters 	1
scalar Network500.node30 	number_of_resources 	27500
scalar Network500.node30 	time_period 	2
scalar Network500.node30 	number_of_messages 	238
scalar Network500.node30 	discovery_latency 	4572
scalar Network500.node30 	number_of_desired_resources 	20
scalar Network500.node30 	query_homogenity_rate 	33.333333333333
scalar Network500.node30 	qrecord_time 	12966
scalar Network500.node30 	discovery_resolution_rate 	66.666666666667
scalar Network500.node290 	rate_of_requesters 	1
scalar Network500.node290 	number_of_resources 	27500
scalar Network500.node290 	time_period 	2
scalar Network500.node290 	number_of_messages 	271
scalar Network500.node290 	discovery_latency 	4524
scalar Network500.node290 	number_of_desired_resources 	20
scalar Network500.node290 	query_homogenity_rate 	33.333333333333
scalar Network500.node290 	qrecord_time 	13174
scalar Network500.node290 	discovery_resolution_rate 	50
scalar Network500.node330 	rate_of_requesters 	1
scalar Network500.node330 	number_of_resources 	27500
scalar Network500.node330 	time_period 	2
scalar Network500.node330 	number_of_messages 	223
scalar Network500.node330 	discovery_latency 	4488
scalar Network500.node330 	number_of_desired_resources 	20
scalar Network500.node330 	query_homogenity_rate 	33.333333333333
scalar Network500.node330 	qrecord_time 	13196
scalar Network500.node330 	discovery_resolution_rate 	66.666666666667
scalar Network500.node150 	rate_of_requesters 	1
scalar Network500.node150 	number_of_resources 	27500
scalar Network500.node150 	time_period 	2
scalar Network500.node150 	number_of_messages 	60
scalar Network500.node150 	discovery_latency 	4230
scalar Network500.node150 	number_of_desired_resources 	20
scalar Network500.node150 	query_homogenity_rate 	33.333333333333
scalar Network500.node150 	qrecord_time 	13487
scalar Network500.node150 	discovery_resolution_rate 	33.333333333333
scalar Network500.node0 	rate_of_requesters 	1
scalar Network500.node0 	number_of_resources 	27500
scalar Network500.node0 	time_period 	2
scalar Network500.node0 	number_of_messages 	2
scalar Network500.node0 	discovery_latency 	4446
scalar Network500.node0 	number_of_desired_resources 	20
scalar Network500.node0 	query_homogenity_rate 	33.333333333333
scalar Network500.node0 	qrecord_time 	13615
scalar Network500.node0 	discovery_resolution_rate 	0
scalar Network500.node430 	rate_of_requesters 	1
scalar Network500.node430 	number_of_resources 	27500
scalar Network500.node430 	time_period 	2
scalar Network500.node430 	number_of_messages 	32
scalar Network500.node430 	discovery_latency 	4404
scalar Network500.node430 	number_of_desired_resources 	20
scalar Network500.node430 	query_homogenity_rate 	33.333333333333
scalar Network500.node430 	qrecord_time 	13844
scalar Network500.node430 	discovery_resolution_rate 	33.333333333333
scalar Network500.node170 	rate_of_requesters 	1
scalar Network500.node170 	number_of_resources 	27500
scalar Network500.node170 	time_period 	2
scalar Network500.node170 	number_of_messages 	0
scalar Network500.node170 	discovery_latency 	4584
scalar Network500.node170 	number_of_desired_resources 	20
scalar Network500.node170 	query_homogenity_rate 	33.333333333333
scalar Network500.node170 	qrecord_time 	13859
scalar Network500.node170 	discovery_resolution_rate 	0
scalar Network500.node350 	rate_of_requesters 	1
scalar Network500.node350 	number_of_resources 	27500
scalar Network500.node350 	time_period 	2
scalar Network500.node350 	number_of_messages 	2
scalar Network500.node350 	discovery_latency 	4464
scalar Network500.node350 	number_of_desired_resources 	20
scalar Network500.node350 	query_homogenity_rate 	33.333333333333
scalar Network500.node350 	qrecord_time 	14047
scalar Network500.node350 	discovery_resolution_rate 	0
scalar Network500.node80 	rate_of_requesters 	1
scalar Network500.node80 	number_of_resources 	27500
scalar Network500.node80 	time_period 	2
scalar Network500.node80 	number_of_messages 	41
scalar Network500.node80 	discovery_latency 	4656
scalar Network500.node80 	number_of_desired_resources 	20
scalar Network500.node80 	query_homogenity_rate 	33.333333333333
scalar Network500.node80 	qrecord_time 	14153
scalar Network500.node80 	discovery_resolution_rate 	33.333333333333
scalar Network500.node240 	rate_of_requesters 	1
scalar Network500.node240 	number_of_resources 	27500
scalar Network500.node240 	time_period 	3
scalar Network500.node240 	number_of_messages 	19
scalar Network500.node240 	discovery_latency 	4476
scalar Network500.node240 	number_of_desired_resources 	20
scalar Network500.node240 	query_homogenity_rate 	33.333333333333
scalar Network500.node240 	qrecord_time 	14319
scalar Network500.node240 	discovery_resolution_rate 	33.333333333333
scalar Network500.node470 	rate_of_requesters 	1
scalar Network500.node470 	number_of_resources 	27500
scalar Network500.node470 	time_period 	3
scalar Network500.node470 	number_of_messages 	18
scalar Network500.node470 	discovery_latency 	4584
scalar Network500.node470 	number_of_desired_resources 	20
scalar Network500.node470 	query_homogenity_rate 	33.333333333333
scalar Network500.node470 	qrecord_time 	14344
scalar Network500.node470 	discovery_resolution_rate 	33.333333333333
scalar Network500.node420 	rate_of_requesters 	1
scalar Network500.node420 	number_of_resources 	27500
scalar Network500.node420 	time_period 	2
scalar Network500.node420 	number_of_messages 	2
scalar Network500.node420 	discovery_latency 	4596
scalar Network500.node420 	number_of_desired_resources 	20
scalar Network500.node420 	query_homogenity_rate 	33.333333333333
scalar Network500.node420 	qrecord_time 	14388
scalar Network500.node420 	discovery_resolution_rate 	0
scalar Network500.node320 	rate_of_requesters 	1
scalar Network500.node320 	number_of_resources 	27500
scalar Network500.node320 	time_period 	3
scalar Network500.node320 	number_of_messages 	2
scalar Network500.node320 	discovery_latency 	4512
scalar Network500.node320 	number_of_desired_resources 	20
scalar Network500.node320 	query_homogenity_rate 	33.333333333333
scalar Network500.node320 	qrecord_time 	14419
scalar Network500.node320 	discovery_resolution_rate 	0
scalar Network500.node190 	rate_of_requesters 	1
scalar Network500.node190 	number_of_resources 	27500
scalar Network500.node190 	time_period 	2
scalar Network500.node190 	number_of_messages 	2
scalar Network500.node190 	discovery_latency 	4536
scalar Network500.node190 	number_of_desired_resources 	20
scalar Network500.node190 	query_homogenity_rate 	33.333333333333
scalar Network500.node190 	qrecord_time 	14472
scalar Network500.node190 	discovery_resolution_rate 	0
scalar Network500.node160 	rate_of_requesters 	1
scalar Network500.node160 	number_of_resources 	27500
scalar Network500.node160 	time_period 	2
scalar Network500.node160 	number_of_messages 	2
scalar Network500.node160 	discovery_latency 	4608
scalar Network500.node160 	number_of_desired_resources 	20
scalar Network500.node160 	query_homogenity_rate 	33.333333333333
scalar Network500.node160 	qrecord_time 	14572
scalar Network500.node160 	discovery_resolution_rate 	0
scalar Network500.node40 	rate_of_requesters 	1
scalar Network500.node40 	number_of_resources 	27500
scalar Network500.node40 	time_period 	2
scalar Network500.node40 	number_of_messages 	2
scalar Network500.node40 	discovery_latency 	4584
scalar Network500.node40 	number_of_desired_resources 	20
scalar Network500.node40 	query_homogenity_rate 	33.333333333333
scalar Network500.node40 	qrecord_time 	14639
scalar Network500.node40 	discovery_resolution_rate 	0
scalar Network500.node20 	rate_of_requesters 	1
scalar Network500.node20 	number_of_resources 	27500
scalar Network500.node20 	time_period 	3
scalar Network500.node20 	number_of_messages 	47
scalar Network500.node20 	discovery_latency 	4350
scalar Network500.node20 	number_of_desired_resources 	20
scalar Network500.node20 	query_homogenity_rate 	33.333333333333
scalar Network500.node20 	qrecord_time 	14650
scalar Network500.node20 	discovery_resolution_rate 	33.333333333333
scalar Network500.node140 	rate_of_requesters 	1
scalar Network500.node140 	number_of_resources 	27500
scalar Network500.node140 	time_period 	3
scalar Network500.node140 	number_of_messages 	0
scalar Network500.node140 	discovery_latency 	4602
scalar Network500.node140 	number_of_desired_resources 	20
scalar Network500.node140 	query_homogenity_rate 	33.333333333333
scalar Network500.node140 	qrecord_time 	14666
scalar Network500.node140 	discovery_resolution_rate 	0
scalar Network500.node440 	rate_of_requesters 	1
scalar Network500.node440 	number_of_resources 	27500
scalar Network500.node440 	time_period 	2
scalar Network500.node440 	number_of_messages 	2
scalar Network500.node440 	discovery_latency 	4560
scalar Network500.node440 	number_of_desired_resources 	20
scalar Network500.node440 	query_homogenity_rate 	33.333333333333
scalar Network500.node440 	qrecord_time 	14723
scalar Network500.node440 	discovery_resolution_rate 	0
scalar Network500.node340 	rate_of_requesters 	1
scalar Network500.node340 	number_of_resources 	27500
scalar Network500.node340 	time_period 	3
scalar Network500.node340 	number_of_messages 	2
scalar Network500.node340 	discovery_latency 	4572
scalar Network500.node340 	number_of_desired_resources 	20
scalar Network500.node340 	query_homogenity_rate 	33.333333333333
scalar Network500.node340 	qrecord_time 	14764
scalar Network500.node340 	discovery_resolution_rate 	0
scalar Network500.node480 	rate_of_requesters 	1
scalar Network500.node480 	number_of_resources 	27500
scalar Network500.node480 	time_period 	2
scalar Network500.node480 	number_of_messages 	2
scalar Network500.node480 	discovery_latency 	4578
scalar Network500.node480 	number_of_desired_resources 	20
scalar Network500.node480 	query_homogenity_rate 	33.333333333333
scalar Network500.node480 	qrecord_time 	14812
scalar Network500.node480 	discovery_resolution_rate 	0
scalar Network500.node270 	rate_of_requesters 	1
scalar Network500.node270 	number_of_resources 	27500
scalar Network500.node270 	time_period 	3
scalar Network500.node270 	number_of_messages 	2
scalar Network500.node270 	discovery_latency 	4512
scalar Network500.node270 	number_of_desired_resources 	20
scalar Network500.node270 	query_homogenity_rate 	33.333333333333
scalar Network500.node270 	qrecord_time 	14823
scalar Network500.node270 	discovery_resolution_rate 	0
scalar Network500.node50 	rate_of_requesters 	1
scalar Network500.node50 	number_of_resources 	27500
scalar Network500.node50 	time_period 	2
scalar Network500.node50 	number_of_messages 	2
scalar Network500.node50 	discovery_latency 	4482
scalar Network500.node50 	number_of_desired_resources 	20
scalar Network500.node50 	query_homogenity_rate 	33.333333333333
scalar Network500.node50 	qrecord_time 	14856
scalar Network500.node50 	discovery_resolution_rate 	0
scalar Network500.node250 	rate_of_requesters 	1
scalar Network500.node250 	number_of_resources 	27500
scalar Network500.node250 	time_period 	3
scalar Network500.node250 	number_of_messages 	2
scalar Network500.node250 	discovery_latency 	4614
scalar Network500.node250 	number_of_desired_resources 	20
scalar Network500.node250 	query_homogenity_rate 	33.333333333333
scalar Network500.node250 	qrecord_time 	14859
scalar Network500.node250 	discovery_resolution_rate 	0
scalar Network500.node180 	rate_of_requesters 	1
scalar Network500.node180 	number_of_resources 	27500
scalar Network500.node180 	time_period 	2
scalar Network500.node180 	number_of_messages 	0
scalar Network500.node180 	discovery_latency 	4620
scalar Network500.node180 	number_of_desired_resources 	20
scalar Network500.node180 	query_homogenity_rate 	33.333333333333
scalar Network500.node180 	qrecord_time 	15032
scalar Network500.node180 	discovery_resolution_rate 	0
scalar Network500.node460 	rate_of_requesters 	1
scalar Network500.node460 	number_of_resources 	27500
scalar Network500.node460 	time_period 	3
scalar Network500.node460 	number_of_messages 	2
scalar Network500.node460 	discovery_latency 	4644
scalar Network500.node460 	number_of_desired_resources 	20
scalar Network500.node460 	query_homogenity_rate 	33.333333333333
scalar Network500.node460 	qrecord_time 	15056
scalar Network500.node460 	discovery_resolution_rate 	0
scalar Network500.node400 	rate_of_requesters 	1
scalar Network500.node400 	number_of_resources 	27500
scalar Network500.node400 	time_period 	2
scalar Network500.node400 	number_of_messages 	260
scalar Network500.node400 	discovery_latency 	4536
scalar Network500.node400 	number_of_desired_resources 	20
scalar Network500.node400 	query_homogenity_rate 	33.333333333333
scalar Network500.node400 	qrecord_time 	15064
scalar Network500.node400 	discovery_resolution_rate 	16.666666666667
scalar Network500.node370 	rate_of_requesters 	1
scalar Network500.node370 	number_of_resources 	27500
scalar Network500.node370 	time_period 	3
scalar Network500.node370 	number_of_messages 	2
scalar Network500.node370 	discovery_latency 	4602
scalar Network500.node370 	number_of_desired_resources 	20
scalar Network500.node370 	query_homogenity_rate 	33.333333333333
scalar Network500.node370 	qrecord_time 	15164.999999999
scalar Network500.node370 	discovery_resolution_rate 	0
scalar Network500.node100 	rate_of_requesters 	1
scalar Network500.node100 	number_of_resources 	27500
scalar Network500.node100 	time_period 	2
scalar Network500.node100 	number_of_messages 	2
scalar Network500.node100 	discovery_latency 	4506
scalar Network500.node100 	number_of_desired_resources 	20
scalar Network500.node100 	query_homogenity_rate 	33.333333333333
scalar Network500.node100 	qrecord_time 	15205
scalar Network500.node100 	discovery_resolution_rate 	0
scalar Network500.node360 	rate_of_requesters 	1
scalar Network500.node360 	number_of_resources 	27500
scalar Network500.node360 	time_period 	3
scalar Network500.node360 	number_of_messages 	247
scalar Network500.node360 	discovery_latency 	4656
scalar Network500.node360 	number_of_desired_resources 	20
scalar Network500.node360 	query_homogenity_rate 	33.333333333333
scalar Network500.node360 	qrecord_time 	15224
scalar Network500.node360 	discovery_resolution_rate 	16.666666666667
scalar Network500.node230 	rate_of_requesters 	1
scalar Network500.node230 	number_of_resources 	27500
scalar Network500.node230 	time_period 	3
scalar Network500.node230 	number_of_messages 	2
scalar Network500.node230 	discovery_latency 	4476
scalar Network500.node230 	number_of_desired_resources 	20
scalar Network500.node230 	query_homogenity_rate 	33.333333333333
scalar Network500.node230 	qrecord_time 	15339
scalar Network500.node230 	discovery_resolution_rate 	0
scalar Network500.node450 	rate_of_requesters 	1
scalar Network500.node450 	number_of_resources 	27500
scalar Network500.node450 	time_period 	3
scalar Network500.node450 	number_of_messages 	2
scalar Network500.node450 	discovery_latency 	4596
scalar Network500.node450 	number_of_desired_resources 	20
scalar Network500.node450 	query_homogenity_rate 	33.333333333333
scalar Network500.node450 	qrecord_time 	15479
scalar Network500.node450 	discovery_resolution_rate 	0
scalar Network500.node320 	rate_of_requesters 	1
scalar Network500.node320 	number_of_resources 	27500
scalar Network500.node320 	time_period 	4
scalar Network500.node320 	number_of_messages 	102
scalar Network500.node320 	discovery_latency 	696
scalar Network500.node320 	number_of_desired_resources 	20
scalar Network500.node320 	query_homogenity_rate 	33.333333333333
scalar Network500.node320 	qrecord_time 	15789
scalar Network500.node320 	discovery_resolution_rate 	100
scalar Network500.node490 	rate_of_requesters 	1
scalar Network500.node490 	number_of_resources 	27500
scalar Network500.node490 	time_period 	3
scalar Network500.node490 	number_of_messages 	2
scalar Network500.node490 	discovery_latency 	4626
scalar Network500.node490 	number_of_desired_resources 	20
scalar Network500.node490 	query_homogenity_rate 	33.333333333333
scalar Network500.node490 	qrecord_time 	15952
scalar Network500.node490 	discovery_resolution_rate 	0
scalar Network500.node130 	rate_of_requesters 	1
scalar Network500.node130 	number_of_resources 	27500
scalar Network500.node130 	time_period 	4
scalar Network500.node130 	number_of_messages 	161
scalar Network500.node130 	discovery_latency 	1170
scalar Network500.node130 	number_of_desired_resources 	20
scalar Network500.node130 	query_homogenity_rate 	33.333333333333
scalar Network500.node130 	qrecord_time 	16099
scalar Network500.node130 	discovery_resolution_rate 	100
scalar Network500.node210 	rate_of_requesters 	1
scalar Network500.node210 	number_of_resources 	27500
scalar Network500.node210 	time_period 	3
scalar Network500.node210 	number_of_messages 	2
scalar Network500.node210 	discovery_latency 	4656
scalar Network500.node210 	number_of_desired_resources 	20
scalar Network500.node210 	query_homogenity_rate 	33.333333333333
scalar Network500.node210 	qrecord_time 	16107
scalar Network500.node210 	discovery_resolution_rate 	0
scalar Network500.node150 	rate_of_requesters 	1
scalar Network500.node150 	number_of_resources 	27500
scalar Network500.node150 	time_period 	4
scalar Network500.node150 	number_of_messages 	152
scalar Network500.node150 	discovery_latency 	1290
scalar Network500.node150 	number_of_desired_resources 	20
scalar Network500.node150 	query_homogenity_rate 	33.333333333333
scalar Network500.node150 	qrecord_time 	16108
scalar Network500.node150 	discovery_resolution_rate 	100
scalar Network500.node270 	rate_of_requesters 	1
scalar Network500.node270 	number_of_resources 	27500
scalar Network500.node270 	time_period 	4
scalar Network500.node270 	number_of_messages 	22
scalar Network500.node270 	discovery_latency 	240
scalar Network500.node270 	number_of_desired_resources 	20
scalar Network500.node270 	query_homogenity_rate 	33.333333333333
scalar Network500.node270 	qrecord_time 	16125
scalar Network500.node270 	discovery_resolution_rate 	100
scalar Network500.node120 	rate_of_requesters 	1
scalar Network500.node120 	number_of_resources 	27500
scalar Network500.node120 	time_period 	4
scalar Network500.node120 	number_of_messages 	64
scalar Network500.node120 	discovery_latency 	612
scalar Network500.node120 	number_of_desired_resources 	20
scalar Network500.node120 	query_homogenity_rate 	33.333333333333
scalar Network500.node120 	qrecord_time 	16180
scalar Network500.node120 	discovery_resolution_rate 	100
scalar Network500.node430 	rate_of_requesters 	1
scalar Network500.node430 	number_of_resources 	27500
scalar Network500.node430 	time_period 	3
scalar Network500.node430 	number_of_messages 	104
scalar Network500.node430 	discovery_latency 	954
scalar Network500.node430 	number_of_desired_resources 	20
scalar Network500.node430 	query_homogenity_rate 	33.333333333333
scalar Network500.node430 	qrecord_time 	16198
scalar Network500.node430 	discovery_resolution_rate 	100
scalar Network500.node150 	rate_of_requesters 	1
scalar Network500.node150 	number_of_resources 	27500
scalar Network500.node150 	time_period 	3
scalar Network500.node150 	number_of_messages 	2
scalar Network500.node150 	discovery_latency 	4632
scalar Network500.node150 	number_of_desired_resources 	20
scalar Network500.node150 	query_homogenity_rate 	33.333333333333
scalar Network500.node150 	qrecord_time 	16273
scalar Network500.node150 	discovery_resolution_rate 	0
scalar Network500.node180 	rate_of_requesters 	1
scalar Network500.node180 	number_of_resources 	27500
scalar Network500.node180 	time_period 	3
scalar Network500.node180 	number_of_messages 	144
scalar Network500.node180 	discovery_latency 	1440
scalar Network500.node180 	number_of_desired_resources 	20
scalar Network500.node180 	query_homogenity_rate 	33.333333333333
scalar Network500.node180 	qrecord_time 	16275
scalar Network500.node180 	discovery_resolution_rate 	100
scalar Network500.node20 	rate_of_requesters 	1
scalar Network500.node20 	number_of_resources 	27500
scalar Network500.node20 	time_period 	4
scalar Network500.node20 	number_of_messages 	118
scalar Network500.node20 	discovery_latency 	1386
scalar Network500.node20 	number_of_desired_resources 	20
scalar Network500.node20 	query_homogenity_rate 	33.333333333333
scalar Network500.node20 	qrecord_time 	16293
scalar Network500.node20 	discovery_resolution_rate 	100
scalar Network500.node470 	rate_of_requesters 	1
scalar Network500.node470 	number_of_resources 	27500
scalar Network500.node470 	time_period 	4
scalar Network500.node470 	number_of_messages 	104
scalar Network500.node470 	discovery_latency 	1170
scalar Network500.node470 	number_of_desired_resources 	20
scalar Network500.node470 	query_homogenity_rate 	33.333333333333
scalar Network500.node470 	qrecord_time 	16299
scalar Network500.node470 	discovery_resolution_rate 	100
scalar Network500.node420 	rate_of_requesters 	1
scalar Network500.node420 	number_of_resources 	27500
scalar Network500.node420 	time_period 	3
scalar Network500.node420 	number_of_messages 	107
scalar Network500.node420 	discovery_latency 	978
scalar Network500.node420 	number_of_desired_resources 	20
scalar Network500.node420 	query_homogenity_rate 	33.333333333333
scalar Network500.node420 	qrecord_time 	16311
scalar Network500.node420 	discovery_resolution_rate 	100
scalar Network500.node80 	rate_of_requesters 	1
scalar Network500.node80 	number_of_resources 	27500
scalar Network500.node80 	time_period 	3
scalar Network500.node80 	number_of_messages 	2
scalar Network500.node80 	discovery_latency 	4722
scalar Network500.node80 	number_of_desired_resources 	20
scalar Network500.node80 	query_homogenity_rate 	33.333333333333
scalar Network500.node80 	qrecord_time 	16324.999999999
scalar Network500.node80 	discovery_resolution_rate 	0
scalar Network500.node310 	rate_of_requesters 	1
scalar Network500.node310 	number_of_resources 	27500
scalar Network500.node310 	time_period 	3
scalar Network500.node310 	number_of_messages 	2
scalar Network500.node310 	discovery_latency 	4536
scalar Network500.node310 	number_of_desired_resources 	20
scalar Network500.node310 	query_homogenity_rate 	33.333333333333
scalar Network500.node310 	qrecord_time 	16327
scalar Network500.node310 	discovery_resolution_rate 	0
scalar Network500.node410 	rate_of_requesters 	1
scalar Network500.node410 	number_of_resources 	27500
scalar Network500.node410 	time_period 	4
scalar Network500.node410 	number_of_messages 	48
scalar Network500.node410 	discovery_latency 	480
scalar Network500.node410 	number_of_desired_resources 	20
scalar Network500.node410 	query_homogenity_rate 	33.333333333333
scalar Network500.node410 	qrecord_time 	16360
scalar Network500.node410 	discovery_resolution_rate 	100
scalar Network500.node190 	rate_of_requesters 	1
scalar Network500.node190 	number_of_resources 	27500
scalar Network500.node190 	time_period 	3
scalar Network500.node190 	number_of_messages 	116
scalar Network500.node190 	discovery_latency 	1014
scalar Network500.node190 	number_of_desired_resources 	20
scalar Network500.node190 	query_homogenity_rate 	33.333333333333
scalar Network500.node190 	qrecord_time 	16402
scalar Network500.node190 	discovery_resolution_rate 	100
scalar Network500.node240 	rate_of_requesters 	1
scalar Network500.node240 	number_of_resources 	27500
scalar Network500.node240 	time_period 	4
scalar Network500.node240 	number_of_messages 	120
scalar Network500.node240 	discovery_latency 	1122
scalar Network500.node240 	number_of_desired_resources 	20
scalar Network500.node240 	query_homogenity_rate 	33.333333333333
scalar Network500.node240 	qrecord_time 	16407
scalar Network500.node240 	discovery_resolution_rate 	100
scalar Network500.node480 	rate_of_requesters 	1
scalar Network500.node480 	number_of_resources 	27500
scalar Network500.node480 	time_period 	3
scalar Network500.node480 	number_of_messages 	100
scalar Network500.node480 	discovery_latency 	1164
scalar Network500.node480 	number_of_desired_resources 	20
scalar Network500.node480 	query_homogenity_rate 	33.333333333333
scalar Network500.node480 	qrecord_time 	16518
scalar Network500.node480 	discovery_resolution_rate 	100
scalar Network500.node110 	rate_of_requesters 	1
scalar Network500.node110 	number_of_resources 	27500
scalar Network500.node110 	time_period 	4
scalar Network500.node110 	number_of_messages 	24
scalar Network500.node110 	discovery_latency 	264
scalar Network500.node110 	number_of_desired_resources 	20
scalar Network500.node110 	query_homogenity_rate 	33.333333333333
scalar Network500.node110 	qrecord_time 	16617
scalar Network500.node110 	discovery_resolution_rate 	100
scalar Network500.node300 	rate_of_requesters 	1
scalar Network500.node300 	number_of_resources 	27500
scalar Network500.node300 	time_period 	4
scalar Network500.node300 	number_of_messages 	74
scalar Network500.node300 	discovery_latency 	786
scalar Network500.node300 	number_of_desired_resources 	20
scalar Network500.node300 	query_homogenity_rate 	33.333333333333
scalar Network500.node300 	qrecord_time 	16674
scalar Network500.node300 	discovery_resolution_rate 	100
scalar Network500.node440 	rate_of_requesters 	1
scalar Network500.node440 	number_of_resources 	27500
scalar Network500.node440 	time_period 	3
scalar Network500.node440 	number_of_messages 	62
scalar Network500.node440 	discovery_latency 	654
scalar Network500.node440 	number_of_desired_resources 	20
scalar Network500.node440 	query_homogenity_rate 	33.333333333333
scalar Network500.node440 	qrecord_time 	16688
scalar Network500.node440 	discovery_resolution_rate 	100
scalar Network500.node170 	rate_of_requesters 	1
scalar Network500.node170 	number_of_resources 	27500
scalar Network500.node170 	time_period 	3
scalar Network500.node170 	number_of_messages 	317
scalar Network500.node170 	discovery_latency 	2262
scalar Network500.node170 	number_of_desired_resources 	20
scalar Network500.node170 	query_homogenity_rate 	33.333333333333
scalar Network500.node170 	qrecord_time 	16715
scalar Network500.node170 	discovery_resolution_rate 	100
scalar Network500.node390 	rate_of_requesters 	1
scalar Network500.node390 	number_of_resources 	27500
scalar Network500.node390 	time_period 	4
scalar Network500.node390 	number_of_messages 	39
scalar Network500.node390 	discovery_latency 	336
scalar Network500.node390 	number_of_desired_resources 	20
scalar Network500.node390 	query_homogenity_rate 	33.333333333333
scalar Network500.node390 	qrecord_time 	16737
scalar Network500.node390 	discovery_resolution_rate 	100
scalar Network500.node350 	rate_of_requesters 	1
scalar Network500.node350 	number_of_resources 	27500
scalar Network500.node350 	time_period 	3
scalar Network500.node350 	number_of_messages 	2
scalar Network500.node350 	discovery_latency 	4620
scalar Network500.node350 	number_of_desired_resources 	20
scalar Network500.node350 	query_homogenity_rate 	33.333333333333
scalar Network500.node350 	qrecord_time 	16901
scalar Network500.node350 	discovery_resolution_rate 	0
scalar Network500.node340 	rate_of_requesters 	1
scalar Network500.node340 	number_of_resources 	27500
scalar Network500.node340 	time_period 	4
scalar Network500.node340 	number_of_messages 	249
scalar Network500.node340 	discovery_latency 	1986
scalar Network500.node340 	number_of_desired_resources 	20
scalar Network500.node340 	query_homogenity_rate 	33.333333333333
scalar Network500.node340 	qrecord_time 	16906
scalar Network500.node340 	discovery_resolution_rate 	100
scalar Network500.node230 	rate_of_requesters 	1
scalar Network500.node230 	number_of_resources 	27500
scalar Network500.node230 	time_period 	4
scalar Network500.node230 	number_of_messages 	33
scalar Network500.node230 	discovery_latency 	216
scalar Network500.node230 	number_of_desired_resources 	20
scalar Network500.node230 	query_homogenity_rate 	33.333333333333
scalar Network500.node230 	qrecord_time 	17065
scalar Network500.node230 	discovery_resolution_rate 	100
scalar Network500.node200 	rate_of_requesters 	1
scalar Network500.node200 	number_of_resources 	27500
scalar Network500.node200 	time_period 	3
scalar Network500.node200 	number_of_messages 	2
scalar Network500.node200 	discovery_latency 	4752
scalar Network500.node200 	number_of_desired_resources 	20
scalar Network500.node200 	query_homogenity_rate 	33.333333333333
scalar Network500.node200 	qrecord_time 	17067
scalar Network500.node200 	discovery_resolution_rate 	0
scalar Network500.node260 	rate_of_requesters 	1
scalar Network500.node260 	number_of_resources 	27500
scalar Network500.node260 	time_period 	3
scalar Network500.node260 	number_of_messages 	0
scalar Network500.node260 	discovery_latency 	4740
scalar Network500.node260 	number_of_desired_resources 	20
scalar Network500.node260 	query_homogenity_rate 	33.333333333333
scalar Network500.node260 	qrecord_time 	17084
scalar Network500.node260 	discovery_resolution_rate 	0
scalar Network500.node160 	rate_of_requesters 	1
scalar Network500.node160 	number_of_resources 	27500
scalar Network500.node160 	time_period 	3
scalar Network500.node160 	number_of_messages 	207
scalar Network500.node160 	discovery_latency 	1914
scalar Network500.node160 	number_of_desired_resources 	20
scalar Network500.node160 	query_homogenity_rate 	33.333333333333
scalar Network500.node160 	qrecord_time 	17117
scalar Network500.node160 	discovery_resolution_rate 	100
scalar Network500.node330 	rate_of_requesters 	1
scalar Network500.node330 	number_of_resources 	27500
scalar Network500.node330 	time_period 	3
scalar Network500.node330 	number_of_messages 	257
scalar Network500.node330 	discovery_latency 	2598
scalar Network500.node330 	number_of_desired_resources 	20
scalar Network500.node330 	query_homogenity_rate 	33.333333333333
scalar Network500.node330 	qrecord_time 	17131
scalar Network500.node330 	discovery_resolution_rate 	100
scalar Network500.node290 	rate_of_requesters 	1
scalar Network500.node290 	number_of_resources 	27500
scalar Network500.node290 	time_period 	3
scalar Network500.node290 	number_of_messages 	2
scalar Network500.node290 	discovery_latency 	4788
scalar Network500.node290 	number_of_desired_resources 	20
scalar Network500.node290 	query_homogenity_rate 	33.333333333333
scalar Network500.node290 	qrecord_time 	17131
scalar Network500.node290 	discovery_resolution_rate 	0
scalar Network500.node220 	rate_of_requesters 	1
scalar Network500.node220 	number_of_resources 	27500
scalar Network500.node220 	time_period 	3
scalar Network500.node220 	number_of_messages 	2
scalar Network500.node220 	discovery_latency 	4608
scalar Network500.node220 	number_of_desired_resources 	20
scalar Network500.node220 	query_homogenity_rate 	33.333333333333
scalar Network500.node220 	qrecord_time 	17162
scalar Network500.node220 	discovery_resolution_rate 	0
scalar Network500.node290 	rate_of_requesters 	1
scalar Network500.node290 	number_of_resources 	27500
scalar Network500.node290 	time_period 	4
scalar Network500.node290 	number_of_messages 	132
scalar Network500.node290 	discovery_latency 	1464
scalar Network500.node290 	number_of_desired_resources 	20
scalar Network500.node290 	query_homogenity_rate 	33.333333333333
scalar Network500.node290 	qrecord_time 	17180
scalar Network500.node290 	discovery_resolution_rate 	100
scalar Network500.node130 	rate_of_requesters 	1
scalar Network500.node130 	number_of_resources 	27500
scalar Network500.node130 	time_period 	3
scalar Network500.node130 	number_of_messages 	2
scalar Network500.node130 	discovery_latency 	4728
scalar Network500.node130 	number_of_desired_resources 	20
scalar Network500.node130 	query_homogenity_rate 	33.333333333333
scalar Network500.node130 	qrecord_time 	17223
scalar Network500.node130 	discovery_resolution_rate 	0
scalar Network500.node470 	rate_of_requesters 	1
scalar Network500.node470 	number_of_resources 	27500
scalar Network500.node470 	time_period 	5
scalar Network500.node470 	number_of_messages 	15
scalar Network500.node470 	discovery_latency 	108
scalar Network500.node470 	number_of_desired_resources 	20
scalar Network500.node470 	query_homogenity_rate 	33.333333333333
scalar Network500.node470 	qrecord_time 	17281
scalar Network500.node470 	discovery_resolution_rate 	100
scalar Network500.node460 	rate_of_requesters 	1
scalar Network500.node460 	number_of_resources 	27500
scalar Network500.node460 	time_period 	4
scalar Network500.node460 	number_of_messages 	2
scalar Network500.node460 	discovery_latency 	4560
scalar Network500.node460 	number_of_desired_resources 	20
scalar Network500.node460 	query_homogenity_rate 	33.333333333333
scalar Network500.node460 	qrecord_time 	17326
scalar Network500.node460 	discovery_resolution_rate 	0
scalar Network500.node360 	rate_of_requesters 	1
scalar Network500.node360 	number_of_resources 	27500
scalar Network500.node360 	time_period 	5
scalar Network500.node360 	number_of_messages 	39
scalar Network500.node360 	discovery_latency 	312
scalar Network500.node360 	number_of_desired_resources 	20
scalar Network500.node360 	query_homogenity_rate 	33.333333333333
scalar Network500.node360 	qrecord_time 	17339.999999999
scalar Network500.node360 	discovery_resolution_rate 	100
scalar Network500.node90 	rate_of_requesters 	1
scalar Network500.node90 	number_of_resources 	27500
scalar Network500.node90 	time_period 	3
scalar Network500.node90 	number_of_messages 	404
scalar Network500.node90 	discovery_latency 	4278
scalar Network500.node90 	number_of_desired_resources 	20
scalar Network500.node90 	query_homogenity_rate 	33.333333333333
scalar Network500.node90 	qrecord_time 	17378
scalar Network500.node90 	discovery_resolution_rate 	66.666666666667
scalar Network500.node360 	rate_of_requesters 	1
scalar Network500.node360 	number_of_resources 	27500
scalar Network500.node360 	time_period 	4
scalar Network500.node360 	number_of_messages 	185
scalar Network500.node360 	discovery_latency 	4530
scalar Network500.node360 	number_of_desired_resources 	20
scalar Network500.node360 	query_homogenity_rate 	33.333333333333
scalar Network500.node360 	qrecord_time 	17410
scalar Network500.node360 	discovery_resolution_rate 	33.333333333333
scalar Network500.node280 	rate_of_requesters 	1
scalar Network500.node280 	number_of_resources 	27500
scalar Network500.node280 	time_period 	3
scalar Network500.node280 	number_of_messages 	2
scalar Network500.node280 	discovery_latency 	4644
scalar Network500.node280 	number_of_desired_resources 	20
scalar Network500.node280 	query_homogenity_rate 	33.333333333333
scalar Network500.node280 	qrecord_time 	17413
scalar Network500.node280 	discovery_resolution_rate 	0
scalar Network500.node410 	rate_of_requesters 	1
scalar Network500.node410 	number_of_resources 	27500
scalar Network500.node410 	time_period 	3
scalar Network500.node410 	number_of_messages 	2
scalar Network500.node410 	discovery_latency 	4530
scalar Network500.node410 	number_of_desired_resources 	20
scalar Network500.node410 	query_homogenity_rate 	33.333333333333
scalar Network500.node410 	qrecord_time 	17553
scalar Network500.node410 	discovery_resolution_rate 	0
scalar Network500.node40 	rate_of_requesters 	1
scalar Network500.node40 	number_of_resources 	27500
scalar Network500.node40 	time_period 	3
scalar Network500.node40 	number_of_messages 	193
scalar Network500.node40 	discovery_latency 	4434
scalar Network500.node40 	number_of_desired_resources 	20
scalar Network500.node40 	query_homogenity_rate 	33.333333333333
scalar Network500.node40 	qrecord_time 	17602
scalar Network500.node40 	discovery_resolution_rate 	33.333333333333
scalar Network500.node90 	rate_of_requesters 	1
scalar Network500.node90 	number_of_resources 	27500
scalar Network500.node90 	time_period 	4
scalar Network500.node90 	number_of_messages 	31
scalar Network500.node90 	discovery_latency 	246
scalar Network500.node90 	number_of_desired_resources 	20
scalar Network500.node90 	query_homogenity_rate 	33.333333333333
scalar Network500.node90 	qrecord_time 	17617
scalar Network500.node90 	discovery_resolution_rate 	100
scalar Network500.node250 	rate_of_requesters 	1
scalar Network500.node250 	number_of_resources 	27500
scalar Network500.node250 	time_period 	4
scalar Network500.node250 	number_of_messages 	390
scalar Network500.node250 	discovery_latency 	3600
scalar Network500.node250 	number_of_desired_resources 	20
scalar Network500.node250 	query_homogenity_rate 	33.333333333333
scalar Network500.node250 	qrecord_time 	17629
scalar Network500.node250 	discovery_resolution_rate 	100
scalar Network500.node110 	rate_of_requesters 	1
scalar Network500.node110 	number_of_resources 	27500
scalar Network500.node110 	time_period 	3
scalar Network500.node110 	number_of_messages 	168
scalar Network500.node110 	discovery_latency 	4602
scalar Network500.node110 	number_of_desired_resources 	20
scalar Network500.node110 	query_homogenity_rate 	33.333333333333
scalar Network500.node110 	qrecord_time 	17712
scalar Network500.node110 	discovery_resolution_rate 	33.333333333333
scalar Network500.node120 	rate_of_requesters 	1
scalar Network500.node120 	number_of_resources 	27500
scalar Network500.node120 	time_period 	3
scalar Network500.node120 	number_of_messages 	237
scalar Network500.node120 	discovery_latency 	4614
scalar Network500.node120 	number_of_desired_resources 	20
scalar Network500.node120 	query_homogenity_rate 	33.333333333333
scalar Network500.node120 	qrecord_time 	17720
scalar Network500.node120 	discovery_resolution_rate 	33.333333333333
scalar Network500.node50 	rate_of_requesters 	1
scalar Network500.node50 	number_of_resources 	27500
scalar Network500.node50 	time_period 	3
scalar Network500.node50 	number_of_messages 	2
scalar Network500.node50 	discovery_latency 	4572
scalar Network500.node50 	number_of_desired_resources 	20
scalar Network500.node50 	query_homogenity_rate 	33.333333333333
scalar Network500.node50 	qrecord_time 	17754
scalar Network500.node50 	discovery_resolution_rate 	0
scalar Network500.node100 	rate_of_requesters 	1
scalar Network500.node100 	number_of_resources 	27500
scalar Network500.node100 	time_period 	3
scalar Network500.node100 	number_of_messages 	2
scalar Network500.node100 	discovery_latency 	4536
scalar Network500.node100 	number_of_desired_resources 	20
scalar Network500.node100 	query_homogenity_rate 	33.333333333333
scalar Network500.node100 	qrecord_time 	17792
scalar Network500.node100 	discovery_resolution_rate 	0
scalar Network500.node260 	rate_of_requesters 	1
scalar Network500.node260 	number_of_resources 	27500
scalar Network500.node260 	time_period 	4
scalar Network500.node260 	number_of_messages 	38
scalar Network500.node260 	discovery_latency 	456
scalar Network500.node260 	number_of_desired_resources 	20
scalar Network500.node260 	query_homogenity_rate 	33.333333333333
scalar Network500.node260 	qrecord_time 	17830
scalar Network500.node260 	discovery_resolution_rate 	100
scalar Network500.node380 	rate_of_requesters 	1
scalar Network500.node380 	number_of_resources 	27500
scalar Network500.node380 	time_period 	3
scalar Network500.node380 	number_of_messages 	428
scalar Network500.node380 	discovery_latency 	4446
scalar Network500.node380 	number_of_desired_resources 	20
scalar Network500.node380 	query_homogenity_rate 	33.333333333333
scalar Network500.node380 	qrecord_time 	17831
scalar Network500.node380 	discovery_resolution_rate 	50
scalar Network500.node10 	rate_of_requesters 	1
scalar Network500.node10 	number_of_resources 	27500
scalar Network500.node10 	time_period 	3
scalar Network500.node10 	number_of_messages 	147
scalar Network500.node10 	discovery_latency 	4656
scalar Network500.node10 	number_of_desired_resources 	20
scalar Network500.node10 	query_homogenity_rate 	33.333333333333
scalar Network500.node10 	qrecord_time 	17872
scalar Network500.node10 	discovery_resolution_rate 	33.333333333333
scalar Network500.node300 	rate_of_requesters 	1
scalar Network500.node300 	number_of_resources 	27500
scalar Network500.node300 	time_period 	3
scalar Network500.node300 	number_of_messages 	338
scalar Network500.node300 	discovery_latency 	4644
scalar Network500.node300 	number_of_desired_resources 	20
scalar Network500.node300 	query_homogenity_rate 	33.333333333333
scalar Network500.node300 	qrecord_time 	17885
scalar Network500.node300 	discovery_resolution_rate 	66.666666666667
scalar Network500.node350 	rate_of_requesters 	1
scalar Network500.node350 	number_of_resources 	27500
scalar Network500.node350 	time_period 	4
scalar Network500.node350 	number_of_messages 	45
scalar Network500.node350 	discovery_latency 	696
scalar Network500.node350 	number_of_desired_resources 	20
scalar Network500.node350 	query_homogenity_rate 	33.333333333333
scalar Network500.node350 	qrecord_time 	17933
scalar Network500.node350 	discovery_resolution_rate 	100
scalar Network500.node60 	rate_of_requesters 	1
scalar Network500.node60 	number_of_resources 	27500
[...]
scalar Network500.node370 	rate_of_requesters 	1
scalar Network500.node370 	number_of_resources 	27500
scalar Network500.node370 	time_period 	100
scalar Network500.node370 	number_of_messages 	152
scalar Network500.node370 	discovery_latency 	1608
scalar Network500.node370 	number_of_desired_resources 	20
scalar Network500.node370 	query_homogenity_rate 	33.333333333333
scalar Network500.node370 	qrecord_time 	408965.99999999
scalar Network500.node370 	discovery_resolution_rate 	100
scalar Network500.node220 	rate_of_requesters 	1
scalar Network500.node220 	number_of_resources 	27500
scalar Network500.node220 	time_period 	96
scalar Network500.node220 	number_of_messages 	65
scalar Network500.node220 	discovery_latency 	528.00000000002
scalar Network500.node220 	number_of_desired_resources 	20
scalar Network500.node220 	query_homogenity_rate 	33.333333333333
scalar Network500.node220 	qrecord_time 	409065
scalar Network500.node220 	discovery_resolution_rate 	100
scalar Network500.node210 	rate_of_requesters 	1
scalar Network500.node210 	number_of_resources 	27500
scalar Network500.node210 	time_period 	99
scalar Network500.node210 	number_of_messages 	266
scalar Network500.node210 	discovery_latency 	2430
scalar Network500.node210 	number_of_desired_resources 	20
scalar Network500.node210 	query_homogenity_rate 	33.333333333333
scalar Network500.node210 	qrecord_time 	409127
scalar Network500.node210 	discovery_resolution_rate 	100
scalar Network500.node200 	rate_of_requesters 	1
scalar Network500.node200 	number_of_resources 	27500
scalar Network500.node200 	time_period 	99
scalar Network500.node200 	number_of_messages 	82
scalar Network500.node200 	discovery_latency 	983.99999999998
scalar Network500.node200 	number_of_desired_resources 	20
scalar Network500.node200 	query_homogenity_rate 	33.333333333333
scalar Network500.node200 	qrecord_time 	409623
scalar Network500.node200 	discovery_resolution_rate 	100
scalar Network500.node190 	rate_of_requesters 	1
scalar Network500.node190 	number_of_resources 	27500
scalar Network500.node190 	time_period 	91
scalar Network500.node190 	number_of_messages 	343
scalar Network500.node190 	discovery_latency 	4500
scalar Network500.node190 	number_of_desired_resources 	20
scalar Network500.node190 	query_homogenity_rate 	33.333333333333
scalar Network500.node190 	qrecord_time 	409883
scalar Network500.node190 	discovery_resolution_rate 	83.333333333333
scalar Network500.node190 	rate_of_requesters 	1
scalar Network500.node190 	number_of_resources 	27500
scalar Network500.node190 	time_period 	92
scalar Network500.node190 	number_of_messages 	64
scalar Network500.node190 	discovery_latency 	875.99999999998
scalar Network500.node190 	number_of_desired_resources 	20
scalar Network500.node190 	query_homogenity_rate 	33.333333333333
scalar Network500.node190 	qrecord_time 	409974
scalar Network500.node190 	discovery_resolution_rate 	100
scalar Network500.node10 	rate_of_requesters 	1
scalar Network500.node10 	number_of_resources 	27500
scalar Network500.node10 	time_period 	99
scalar Network500.node10 	number_of_messages 	49
scalar Network500.node10 	discovery_latency 	432.00000000002
scalar Network500.node10 	number_of_desired_resources 	20
scalar Network500.node10 	query_homogenity_rate 	33.333333333333
scalar Network500.node10 	qrecord_time 	410211
scalar Network500.node10 	discovery_resolution_rate 	100
scalar Network500.node250 	rate_of_requesters 	1
scalar Network500.node250 	number_of_resources 	27500
scalar Network500.node250 	time_period 	99
scalar Network500.node250 	number_of_messages 	102
scalar Network500.node250 	discovery_latency 	1386
scalar Network500.node250 	number_of_desired_resources 	20
scalar Network500.node250 	query_homogenity_rate 	33.333333333333
scalar Network500.node250 	qrecord_time 	410401
scalar Network500.node250 	discovery_resolution_rate 	100
scalar Network500.node70 	rate_of_requesters 	1
scalar Network500.node70 	number_of_resources 	27500
scalar Network500.node70 	time_period 	100
scalar Network500.node70 	number_of_messages 	78
scalar Network500.node70 	discovery_latency 	695.99999999997
scalar Network500.node70 	number_of_desired_resources 	20
scalar Network500.node70 	query_homogenity_rate 	33.333333333333
scalar Network500.node70 	qrecord_time 	410782
scalar Network500.node70 	discovery_resolution_rate 	100
scalar Network500.node390 	rate_of_requesters 	1
scalar Network500.node390 	number_of_resources 	27500
scalar Network500.node390 	time_period 	96
scalar Network500.node390 	number_of_messages 	111
scalar Network500.node390 	discovery_latency 	1296
scalar Network500.node390 	number_of_desired_resources 	20
scalar Network500.node390 	query_homogenity_rate 	33.333333333333
scalar Network500.node390 	qrecord_time 	410847
scalar Network500.node390 	discovery_resolution_rate 	100
scalar Network500.node170 	rate_of_requesters 	1
scalar Network500.node170 	number_of_resources 	27500
scalar Network500.node170 	time_period 	97
scalar Network500.node170 	number_of_messages 	53
scalar Network500.node170 	discovery_latency 	804.00000000003
scalar Network500.node170 	number_of_desired_resources 	20
scalar Network500.node170 	query_homogenity_rate 	33.333333333333
scalar Network500.node170 	qrecord_time 	411171.99999999
scalar Network500.node170 	discovery_resolution_rate 	100
scalar Network500.node350 	rate_of_requesters 	1
scalar Network500.node350 	number_of_resources 	27500
scalar Network500.node350 	time_period 	100
scalar Network500.node350 	number_of_messages 	77
scalar Network500.node350 	discovery_latency 	1050
scalar Network500.node350 	number_of_desired_resources 	20
scalar Network500.node350 	query_homogenity_rate 	33.333333333333
scalar Network500.node350 	qrecord_time 	411390
scalar Network500.node350 	discovery_resolution_rate 	100
scalar Network500.node380 	rate_of_requesters 	1
scalar Network500.node380 	number_of_resources 	27500
scalar Network500.node380 	time_period 	100
scalar Network500.node380 	number_of_messages 	63
scalar Network500.node380 	discovery_latency 	756.00000000003
scalar Network500.node380 	number_of_desired_resources 	20
scalar Network500.node380 	query_homogenity_rate 	33.333333333333
scalar Network500.node380 	qrecord_time 	411440
scalar Network500.node380 	discovery_resolution_rate 	100
scalar Network500.node100 	rate_of_requesters 	1
scalar Network500.node100 	number_of_resources 	27500
scalar Network500.node100 	time_period 	100
scalar Network500.node100 	number_of_messages 	38
scalar Network500.node100 	discovery_latency 	275.99999999995
scalar Network500.node100 	number_of_desired_resources 	20
scalar Network500.node100 	query_homogenity_rate 	33.333333333333
scalar Network500.node100 	qrecord_time 	411588
scalar Network500.node100 	discovery_resolution_rate 	100
scalar Network500.node220 	rate_of_requesters 	1
scalar Network500.node220 	number_of_resources 	27500
scalar Network500.node220 	time_period 	97
scalar Network500.node220 	number_of_messages 	119
scalar Network500.node220 	discovery_latency 	906.00000000001
scalar Network500.node220 	number_of_desired_resources 	20
scalar Network500.node220 	query_homogenity_rate 	33.333333333333
scalar Network500.node220 	qrecord_time 	411739
scalar Network500.node220 	discovery_resolution_rate 	100
scalar Network500.node0 	rate_of_requesters 	1
scalar Network500.node0 	number_of_resources 	27500
scalar Network500.node0 	time_period 	99
scalar Network500.node0 	number_of_messages 	114
scalar Network500.node0 	discovery_latency 	1050
scalar Network500.node0 	number_of_desired_resources 	20
scalar Network500.node0 	query_homogenity_rate 	33.333333333333
scalar Network500.node0 	qrecord_time 	411957
scalar Network500.node0 	discovery_resolution_rate 	100
scalar Network500.node310 	rate_of_requesters 	1
scalar Network500.node310 	number_of_resources 	27500
scalar Network500.node310 	time_period 	100
scalar Network500.node310 	number_of_messages 	62
scalar Network500.node310 	discovery_latency 	720.00000000003
scalar Network500.node310 	number_of_desired_resources 	20
scalar Network500.node310 	query_homogenity_rate 	33.333333333333
scalar Network500.node310 	qrecord_time 	412662
scalar Network500.node310 	discovery_resolution_rate 	100
scalar Network500.node190 	rate_of_requesters 	1
scalar Network500.node190 	number_of_resources 	27500
scalar Network500.node190 	time_period 	93
scalar Network500.node190 	number_of_messages 	74
scalar Network500.node190 	discovery_latency 	918.00000000001
scalar Network500.node190 	number_of_desired_resources 	20
scalar Network500.node190 	query_homogenity_rate 	33.333333333333
scalar Network500.node190 	qrecord_time 	412770
scalar Network500.node190 	discovery_resolution_rate 	100
scalar Network500.node210 	rate_of_requesters 	1
scalar Network500.node210 	number_of_resources 	27500
scalar Network500.node210 	time_period 	100
scalar Network500.node210 	number_of_messages 	46
scalar Network500.node210 	discovery_latency 	678
scalar Network500.node210 	number_of_desired_resources 	20
scalar Network500.node210 	query_homogenity_rate 	33.333333333333
scalar Network500.node210 	qrecord_time 	413138
scalar Network500.node210 	discovery_resolution_rate 	100
scalar Network500.node200 	rate_of_requesters 	1
scalar Network500.node200 	number_of_resources 	27500
scalar Network500.node200 	time_period 	100
scalar Network500.node200 	number_of_messages 	53
scalar Network500.node200 	discovery_latency 	659.99999999997
scalar Network500.node200 	number_of_desired_resources 	20
scalar Network500.node200 	query_homogenity_rate 	33.333333333333
scalar Network500.node200 	qrecord_time 	413439
scalar Network500.node200 	discovery_resolution_rate 	100
scalar Network500.node10 	rate_of_requesters 	1
scalar Network500.node10 	number_of_resources 	27500
scalar Network500.node10 	time_period 	100
scalar Network500.node10 	number_of_messages 	61
scalar Network500.node10 	discovery_latency 	384.00000000001
scalar Network500.node10 	number_of_desired_resources 	20
scalar Network500.node10 	query_homogenity_rate 	33.333333333333
scalar Network500.node10 	qrecord_time 	413524
scalar Network500.node10 	discovery_resolution_rate 	100
scalar Network500.node0 	rate_of_requesters 	1
scalar Network500.node0 	number_of_resources 	27500
scalar Network500.node0 	time_period 	100
scalar Network500.node0 	number_of_messages 	48
scalar Network500.node0 	discovery_latency 	372.00000000001
scalar Network500.node0 	number_of_desired_resources 	20
scalar Network500.node0 	query_homogenity_rate 	33.333333333333
scalar Network500.node0 	qrecord_time 	413610
scalar Network500.node0 	discovery_resolution_rate 	100
scalar Network500.node250 	rate_of_requesters 	1
scalar Network500.node250 	number_of_resources 	27500
scalar Network500.node250 	time_period 	100
scalar Network500.node250 	number_of_messages 	46
scalar Network500.node250 	discovery_latency 	587.99999999997
scalar Network500.node250 	number_of_desired_resources 	20
scalar Network500.node250 	query_homogenity_rate 	33.333333333333
scalar Network500.node250 	qrecord_time 	414191
scalar Network500.node250 	discovery_resolution_rate 	100
scalar Network500.node440 	rate_of_requesters 	1
scalar Network500.node440 	number_of_resources 	27500
scalar Network500.node440 	time_period 	100
scalar Network500.node440 	number_of_messages 	97
scalar Network500.node440 	discovery_latency 	983.99999999998
scalar Network500.node440 	number_of_desired_resources 	20
scalar Network500.node440 	query_homogenity_rate 	33.333333333333
scalar Network500.node440 	qrecord_time 	414352.99999999
scalar Network500.node440 	discovery_resolution_rate 	100
scalar Network500.node170 	rate_of_requesters 	1
scalar Network500.node170 	number_of_resources 	27500
scalar Network500.node170 	time_period 	98
scalar Network500.node170 	number_of_messages 	80
scalar Network500.node170 	discovery_latency 	695.99999999997
scalar Network500.node170 	number_of_desired_resources 	20
scalar Network500.node170 	query_homogenity_rate 	33.333333333333
scalar Network500.node170 	qrecord_time 	414646.99999999
scalar Network500.node170 	discovery_resolution_rate 	100
scalar Network500.node390 	rate_of_requesters 	1
scalar Network500.node390 	number_of_resources 	27500
scalar Network500.node390 	time_period 	97
scalar Network500.node390 	number_of_messages 	46
scalar Network500.node390 	discovery_latency 	504.00000000002
scalar Network500.node390 	number_of_desired_resources 	20
scalar Network500.node390 	query_homogenity_rate 	33.333333333333
scalar Network500.node390 	qrecord_time 	414899
scalar Network500.node390 	discovery_resolution_rate 	100
scalar Network500.node220 	rate_of_requesters 	1
scalar Network500.node220 	number_of_resources 	27500
scalar Network500.node220 	time_period 	98
scalar Network500.node220 	number_of_messages 	46
scalar Network500.node220 	discovery_latency 	324.00000000001
scalar Network500.node220 	number_of_desired_resources 	20
scalar Network500.node220 	query_homogenity_rate 	33.333333333333
scalar Network500.node220 	qrecord_time 	415732
scalar Network500.node220 	discovery_resolution_rate 	100
scalar Network500.node390 	rate_of_requesters 	1
scalar Network500.node390 	number_of_resources 	27500
scalar Network500.node390 	time_period 	98
scalar Network500.node390 	number_of_messages 	38
scalar Network500.node390 	discovery_latency 	312.00000000001
scalar Network500.node390 	number_of_desired_resources 	20
scalar Network500.node390 	query_homogenity_rate 	33.333333333333
scalar Network500.node390 	qrecord_time 	417529
scalar Network500.node390 	discovery_resolution_rate 	100
scalar Network500.node190 	rate_of_requesters 	1
scalar Network500.node190 	number_of_resources 	27500
scalar Network500.node190 	time_period 	94
scalar Network500.node190 	number_of_messages 	27
scalar Network500.node190 	discovery_latency 	276.00000000001
scalar Network500.node190 	number_of_desired_resources 	20
scalar Network500.node190 	query_homogenity_rate 	33.333333333333
scalar Network500.node190 	qrecord_time 	417783
scalar Network500.node190 	discovery_resolution_rate 	100
scalar Network500.node170 	rate_of_requesters 	1
scalar Network500.node170 	number_of_resources 	27500
scalar Network500.node170 	time_period 	99
scalar Network500.node170 	number_of_messages 	14
scalar Network500.node170 	discovery_latency 	156.00000000001
scalar Network500.node170 	number_of_desired_resources 	20
scalar Network500.node170 	query_homogenity_rate 	33.333333333333
scalar Network500.node170 	qrecord_time 	419609.99999999
scalar Network500.node170 	discovery_resolution_rate 	100
scalar Network500.node190 	rate_of_requesters 	1
scalar Network500.node190 	number_of_resources 	27500
scalar Network500.node190 	time_period 	95
scalar Network500.node190 	number_of_messages 	15
scalar Network500.node190 	discovery_latency 	144.00000000001
scalar Network500.node190 	number_of_desired_resources 	20
scalar Network500.node190 	query_homogenity_rate 	33.333333333333
scalar Network500.node190 	qrecord_time 	420044
scalar Network500.node190 	discovery_resolution_rate 	100
scalar Network500.node220 	rate_of_requesters 	1
scalar Network500.node220 	number_of_resources 	27500
scalar Network500.node220 	time_period 	99
scalar Network500.node220 	number_of_messages 	34
scalar Network500.node220 	discovery_latency 	252.00000000001
scalar Network500.node220 	number_of_desired_resources 	20
scalar Network500.node220 	query_homogenity_rate 	33.333333333333
scalar Network500.node220 	qrecord_time 	420269
scalar Network500.node220 	discovery_resolution_rate 	100
scalar Network500.node390 	rate_of_requesters 	1
scalar Network500.node390 	number_of_resources 	27500
scalar Network500.node390 	time_period 	99
scalar Network500.node390 	number_of_messages 	18
scalar Network500.node390 	discovery_latency 	168.00000000001
scalar Network500.node390 	number_of_desired_resources 	20
scalar Network500.node390 	query_homogenity_rate 	33.333333333333
scalar Network500.node390 	qrecord_time 	421530
scalar Network500.node390 	discovery_resolution_rate 	100
scalar Network500.node170 	rate_of_requesters 	1
scalar Network500.node170 	number_of_resources 	27500
scalar Network500.node170 	time_period 	100
scalar Network500.node170 	number_of_messages 	23
scalar Network500.node170 	discovery_latency 	257.99999999998
scalar Network500.node170 	number_of_desired_resources 	20
scalar Network500.node170 	query_homogenity_rate 	33.333333333333
scalar Network500.node170 	qrecord_time 	421998.99999999
scalar Network500.node170 	discovery_resolution_rate 	100
scalar Network500.node190 	rate_of_requesters 	1
scalar Network500.node190 	number_of_resources 	27500
scalar Network500.node190 	time_period 	96
scalar Network500.node190 	number_of_messages 	16
scalar Network500.node190 	discovery_latency 	144.00000000001
scalar Network500.node190 	number_of_desired_resources 	20
scalar Network500.node190 	query_homogenity_rate 	33.333333333333
scalar Network500.node190 	qrecord_time 	423459
scalar Network500.node190 	discovery_resolution_rate 	100
scalar Network500.node220 	rate_of_requesters 	1
scalar Network500.node220 	number_of_resources 	27500
scalar Network500.node220 	time_period 	100
scalar Network500.node220 	number_of_messages 	34
scalar Network500.node220 	discovery_latency 	252.00000000001
scalar Network500.node220 	number_of_desired_resources 	20
scalar Network500.node220 	query_homogenity_rate 	33.333333333333
scalar Network500.node220 	qrecord_time 	424884
scalar Network500.node220 	discovery_resolution_rate 	100
scalar Network500.node390 	rate_of_requesters 	1
scalar Network500.node390 	number_of_resources 	27500
scalar Network500.node390 	time_period 	100
scalar Network500.node390 	number_of_messages 	19
scalar Network500.node390 	discovery_latency 	168.00000000001
scalar Network500.node390 	number_of_desired_resources 	20
scalar Network500.node390 	query_homogenity_rate 	33.333333333333
scalar Network500.node390 	qrecord_time 	425194
scalar Network500.node390 	discovery_resolution_rate 	100
scalar Network500.node190 	rate_of_requesters 	1
scalar Network500.node190 	number_of_resources 	27500
scalar Network500.node190 	time_period 	97
scalar Network500.node190 	number_of_messages 	16
scalar Network500.node190 	discovery_latency 	132.00000000001
scalar Network500.node190 	number_of_desired_resources 	20
scalar Network500.node190 	query_homogenity_rate 	33.333333333333
scalar Network500.node190 	qrecord_time 	428519
scalar Network500.node190 	discovery_resolution_rate 	100
scalar Network500.node190 	rate_of_requesters 	1
scalar Network500.node190 	number_of_resources 	27500
scalar Network500.node190 	time_period 	98
scalar Network500.node190 	number_of_messages 	15
scalar Network500.node190 	discovery_latency 	144.00000000001
scalar Network500.node190 	number_of_desired_resources 	20
scalar Network500.node190 	query_homogenity_rate 	33.333333333333
scalar Network500.node190 	qrecord_time 	431508
scalar Network500.node190 	discovery_resolution_rate 	100
scalar Network500.node190 	rate_of_requesters 	1
scalar Network500.node190 	number_of_resources 	27500
scalar Network500.node190 	time_period 	99
scalar Network500.node190 	number_of_messages 	14
scalar Network500.node190 	discovery_latency 	132.00000000001
scalar Network500.node190 	number_of_desired_resources 	20
scalar Network500.node190 	query_homogenity_rate 	33.333333333333
scalar Network500.node190 	qrecord_time 	434932
scalar Network500.node190 	discovery_resolution_rate 	100
scalar Network500.node190 	rate_of_requesters 	1
scalar Network500.node190 	number_of_resources 	27500
scalar Network500.node190 	time_period 	100
scalar Network500.node190 	number_of_messages 	16
scalar Network500.node190 	discovery_latency 	144.00000000001
scalar Network500.node190 	number_of_desired_resources 	20
scalar Network500.node190 	query_homogenity_rate 	33.333333333333
scalar Network500.node190 	qrecord_time 	437737
scalar Network500.node190 	discovery_resolution_rate 	100
