version 2
run net500-6-20150323-15:11:41-3474
attr as 7
attr configname net500
attr datetime 20150323-15:11:41
attr dnor 20
attr experiment net500
attr inifile omnetpp.ini
attr iterationvars "$rhdrq=3, $dnor=20, $as=7"
attr iterationvars2 "$rhdrq=3, $dnor=20, $as=7, $repetition=0"
attr measurement "$rhdrq=3, $dnor=20, $as=7"
attr network Network500
attr processid 3474
attr repetition 0
attr replication #0
attr resultdir results
attr rhdrq 3
attr runnumber 6
attr seedset 6

scalar . 	as 	7
scalar . 	dnor 	20
scalar . 	rhdrq 	3
scalar Network500.node40 	rate_of_requesters 	1
scalar Network500.node40 	number_of_resources 	27500
scalar Network500.node40 	time_period 	1
scalar Network500.node40 	number_of_messages 	11
scalar Network500.node40 	discovery_latency 	60
scalar Network500.node40 	number_of_desired_resources 	20
scalar Network500.node40 	query_homogenity_rate 	33.333333333333
scalar Network500.node40 	qrecord_time 	4774
scalar Network500.node40 	discovery_resolution_rate 	100
scalar Network500.node390 	rate_of_requesters 	1
scalar Network500.node390 	number_of_resources 	27500
scalar Network500.node390 	time_period 	1
scalar Network500.node390 	number_of_messages 	12
scalar Network500.node390 	discovery_latency 	60
scalar Network500.node390 	number_of_desired_resources 	20
scalar Network500.node390 	query_homogenity_rate 	33.333333333333
scalar Network500.node390 	qrecord_time 	4798
scalar Network500.node390 	discovery_resolution_rate 	100
scalar Network500.node290 	rate_of_requesters 	1
scalar Network500.node290 	number_of_resources 	27500
scalar Network500.node290 	time_period 	1
scalar Network500.node290 	number_of_messages 	13
scalar Network500.node290 	discovery_latency 	84.000000000001
scalar Network500.node290 	number_of_desired_resources 	20
scalar Network500.node290 	query_homogenity_rate 	33.333333333333
scalar Network500.node290 	qrecord_time 	4816
scalar Network500.node290 	discovery_resolution_rate 	100
scalar Network500.node70 	rate_of_requesters 	1
scalar Network500.node70 	number_of_resources 	27500
scalar Network500.node70 	time_period 	1
scalar Network500.node70 	number_of_messages 	19
scalar Network500.node70 	discovery_latency 	168
scalar Network500.node70 	number_of_desired_resources 	20
scalar Network500.node70 	query_homogenity_rate 	33.333333333333
scalar Network500.node70 	qrecord_time 	4834
scalar Network500.node70 	discovery_resolution_rate 	100
scalar Network500.node470 	rate_of_requesters 	1
scalar Network500.node470 	number_of_resources 	27500
scalar Network500.node470 	time_period 	1
scalar Network500.node470 	number_of_messages 	26
scalar Network500.node470 	discovery_latency 	192
scalar Network500.node470 	number_of_desired_resources 	20
scalar Network500.node470 	query_homogenity_rate 	33.333333333333
scalar Network500.node470 	qrecord_time 	4876
scalar Network500.node470 	discovery_resolution_rate 	100
scalar Network500.node180 	rate_of_requesters 	1
scalar Network500.node180 	number_of_resources 	27500
scalar Network500.node180 	time_period 	1
scalar Network500.node180 	number_of_messages 	24
scalar Network500.node180 	discovery_latency 	216
scalar Network500.node180 	number_of_desired_resources 	20
scalar Network500.node180 	query_homogenity_rate 	33.333333333333
scalar Network500.node180 	qrecord_time 	4882
scalar Network500.node180 	discovery_resolution_rate 	100
scalar Network500.node190 	rate_of_requesters 	1
scalar Network500.node190 	number_of_resources 	27500
scalar Network500.node190 	time_period 	1
scalar Network500.node190 	number_of_messages 	20
scalar Network500.node190 	discovery_latency 	156
scalar Network500.node190 	number_of_desired_resources 	20
scalar Network500.node190 	query_homogenity_rate 	33.333333333333
scalar Network500.node190 	qrecord_time 	4888
scalar Network500.node190 	discovery_resolution_rate 	100
scalar Network500.node440 	rate_of_requesters 	1
scalar Network500.node440 	number_of_resources 	27500
scalar Network500.node440 	time_period 	1
scalar Network500.node440 	number_of_messages 	34
scalar Network500.node440 	discovery_latency 	216
scalar Network500.node440 	number_of_desired_resources 	20
scalar Network500.node440 	query_homogenity_rate 	33.333333333333
scalar Network500.node440 	qrecord_time 	4906
scalar Network500.node440 	discovery_resolution_rate 	100
scalar Network500.node90 	rate_of_requesters 	1
scalar Network500.node90 	number_of_resources 	27500
scalar Network500.node90 	time_period 	1
scalar Network500.node90 	number_of_messages 	46
scalar Network500.node90 	discovery_latency 	228
scalar Network500.node90 	number_of_desired_resources 	20
scalar Network500.node90 	query_homogenity_rate 	33.333333333333
scalar Network500.node90 	qrecord_time 	4918
scalar Network500.node90 	discovery_resolution_rate 	100
scalar Network500.node240 	rate_of_requesters 	1
scalar Network500.node240 	number_of_resources 	27500
scalar Network500.node240 	time_period 	1
scalar Network500.node240 	number_of_messages 	35
scalar Network500.node240 	discovery_latency 	228
scalar Network500.node240 	number_of_desired_resources 	20
scalar Network500.node240 	query_homogenity_rate 	33.333333333333
scalar Network500.node240 	qrecord_time 	4924
scalar Network500.node240 	discovery_resolution_rate 	100
scalar Network500.node340 	rate_of_requesters 	1
scalar Network500.node340 	number_of_resources 	27500
scalar Network500.node340 	time_period 	1
scalar Network500.node340 	number_of_messages 	33
scalar Network500.node340 	discovery_latency 	276
scalar Network500.node340 	number_of_desired_resources 	20
scalar Network500.node340 	query_homogenity_rate 	33.333333333333
scalar Network500.node340 	qrecord_time 	4942
scalar Network500.node340 	discovery_resolution_rate 	100
scalar Network500.node300 	rate_of_requesters 	1
scalar Network500.node300 	number_of_resources 	27500
scalar Network500.node300 	time_period 	1
scalar Network500.node300 	number_of_messages 	32
scalar Network500.node300 	discovery_latency 	234
scalar Network500.node300 	number_of_desired_resources 	20
scalar Network500.node300 	query_homogenity_rate 	33.333333333333
scalar Network500.node300 	qrecord_time 	4966
scalar Network500.node300 	discovery_resolution_rate 	100
scalar Network500.node410 	rate_of_requesters 	1
scalar Network500.node410 	number_of_resources 	27500
scalar Network500.node410 	time_period 	1
scalar Network500.node410 	number_of_messages 	35
scalar Network500.node410 	discovery_latency 	300
scalar Network500.node410 	number_of_desired_resources 	20
scalar Network500.node410 	query_homogenity_rate 	33.333333333333
scalar Network500.node410 	qrecord_time 	4972
scalar Network500.node410 	discovery_resolution_rate 	100
scalar Network500.node260 	rate_of_requesters 	1
scalar Network500.node260 	number_of_resources 	27500
scalar Network500.node260 	time_period 	1
scalar Network500.node260 	number_of_messages 	22
scalar Network500.node260 	discovery_latency 	162
scalar Network500.node260 	number_of_desired_resources 	20
scalar Network500.node260 	query_homogenity_rate 	33.333333333333
scalar Network500.node260 	qrecord_time 	4978
scalar Network500.node260 	discovery_resolution_rate 	100
scalar Network500.node380 	rate_of_requesters 	1
scalar Network500.node380 	number_of_resources 	27500
scalar Network500.node380 	time_period 	1
scalar Network500.node380 	number_of_messages 	25
scalar Network500.node380 	discovery_latency 	240
scalar Network500.node380 	number_of_desired_resources 	20
scalar Network500.node380 	query_homogenity_rate 	33.333333333333
scalar Network500.node380 	qrecord_time 	4990
scalar Network500.node380 	discovery_resolution_rate 	100
scalar Network500.node150 	rate_of_requesters 	1
scalar Network500.node150 	number_of_resources 	27500
scalar Network500.node150 	time_period 	1
scalar Network500.node150 	number_of_messages 	34
scalar Network500.node150 	discovery_latency 	306
scalar Network500.node150 	number_of_desired_resources 	20
scalar Network500.node150 	query_homogenity_rate 	33.333333333333
scalar Network500.node150 	qrecord_time 	4996
scalar Network500.node150 	discovery_resolution_rate 	100
scalar Network500.node320 	rate_of_requesters 	1
scalar Network500.node320 	number_of_resources 	27500
scalar Network500.node320 	time_period 	1
scalar Network500.node320 	number_of_messages 	50
scalar Network500.node320 	discovery_latency 	288
scalar Network500.node320 	number_of_desired_resources 	20
scalar Network500.node320 	query_homogenity_rate 	33.333333333333
scalar Network500.node320 	qrecord_time 	4996
scalar Network500.node320 	discovery_resolution_rate 	100
scalar Network500.node360 	rate_of_requesters 	1
scalar Network500.node360 	number_of_resources 	27500
scalar Network500.node360 	time_period 	1
scalar Network500.node360 	number_of_messages 	24
scalar Network500.node360 	discovery_latency 	204
scalar Network500.node360 	number_of_desired_resources 	20
scalar Network500.node360 	query_homogenity_rate 	33.333333333333
scalar Network500.node360 	qrecord_time 	5014
scalar Network500.node360 	discovery_resolution_rate 	100
scalar Network500.node200 	rate_of_requesters 	1
scalar Network500.node200 	number_of_resources 	27500
scalar Network500.node200 	time_period 	1
scalar Network500.node200 	number_of_messages 	24
scalar Network500.node200 	discovery_latency 	228
scalar Network500.node200 	number_of_desired_resources 	20
scalar Network500.node200 	query_homogenity_rate 	33.333333333333
scalar Network500.node200 	qrecord_time 	5026
scalar Network500.node200 	discovery_resolution_rate 	100
scalar Network500.node130 	rate_of_requesters 	1
scalar Network500.node130 	number_of_resources 	27500
scalar Network500.node130 	time_period 	1
scalar Network500.node130 	number_of_messages 	29
scalar Network500.node130 	discovery_latency 	222
scalar Network500.node130 	number_of_desired_resources 	20
scalar Network500.node130 	query_homogenity_rate 	33.333333333333
scalar Network500.node130 	qrecord_time 	5038
scalar Network500.node130 	discovery_resolution_rate 	100
scalar Network500.node490 	rate_of_requesters 	1
scalar Network500.node490 	number_of_resources 	27500
scalar Network500.node490 	time_period 	1
scalar Network500.node490 	number_of_messages 	26
scalar Network500.node490 	discovery_latency 	312
scalar Network500.node490 	number_of_desired_resources 	20
scalar Network500.node490 	query_homogenity_rate 	33.333333333333
scalar Network500.node490 	qrecord_time 	5056
scalar Network500.node490 	discovery_resolution_rate 	100
scalar Network500.node0 	rate_of_requesters 	1
scalar Network500.node0 	number_of_resources 	27500
scalar Network500.node0 	time_period 	1
scalar Network500.node0 	number_of_messages 	36
scalar Network500.node0 	discovery_latency 	378
scalar Network500.node0 	number_of_desired_resources 	20
scalar Network500.node0 	query_homogenity_rate 	33.333333333333
scalar Network500.node0 	qrecord_time 	5068
scalar Network500.node0 	discovery_resolution_rate 	100
scalar Network500.node60 	rate_of_requesters 	1
scalar Network500.node60 	number_of_resources 	27500
scalar Network500.node60 	time_period 	1
scalar Network500.node60 	number_of_messages 	30
scalar Network500.node60 	discovery_latency 	312
scalar Network500.node60 	number_of_desired_resources 	20
scalar Network500.node60 	query_homogenity_rate 	33.333333333333
scalar Network500.node60 	qrecord_time 	5068
scalar Network500.node60 	discovery_resolution_rate 	100
scalar Network500.node10 	rate_of_requesters 	1
scalar Network500.node10 	number_of_resources 	27500
scalar Network500.node10 	time_period 	1
scalar Network500.node10 	number_of_messages 	43
scalar Network500.node10 	discovery_latency 	378
scalar Network500.node10 	number_of_desired_resources 	20
scalar Network500.node10 	query_homogenity_rate 	33.333333333333
scalar Network500.node10 	qrecord_time 	5068
scalar Network500.node10 	discovery_resolution_rate 	100
scalar Network500.node30 	rate_of_requesters 	1
scalar Network500.node30 	number_of_resources 	27500
scalar Network500.node30 	time_period 	1
scalar Network500.node30 	number_of_messages 	36
scalar Network500.node30 	discovery_latency 	342
scalar Network500.node30 	number_of_desired_resources 	20
scalar Network500.node30 	query_homogenity_rate 	33.333333333333
scalar Network500.node30 	qrecord_time 	5074
scalar Network500.node30 	discovery_resolution_rate 	100
scalar Network500.node420 	rate_of_requesters 	1
scalar Network500.node420 	number_of_resources 	27500
scalar Network500.node420 	time_period 	1
scalar Network500.node420 	number_of_messages 	56
scalar Network500.node420 	discovery_latency 	348
scalar Network500.node420 	number_of_desired_resources 	20
scalar Network500.node420 	query_homogenity_rate 	33.333333333333
scalar Network500.node420 	qrecord_time 	5086
scalar Network500.node420 	discovery_resolution_rate 	100
scalar Network500.node330 	rate_of_requesters 	1
scalar Network500.node330 	number_of_resources 	27500
scalar Network500.node330 	time_period 	1
scalar Network500.node330 	number_of_messages 	37
scalar Network500.node330 	discovery_latency 	354
scalar Network500.node330 	number_of_desired_resources 	20
scalar Network500.node330 	query_homogenity_rate 	33.333333333333
scalar Network500.node330 	qrecord_time 	5086
scalar Network500.node330 	discovery_resolution_rate 	100
scalar Network500.node450 	rate_of_requesters 	1
scalar Network500.node450 	number_of_resources 	27500
scalar Network500.node450 	time_period 	1
scalar Network500.node450 	number_of_messages 	47
scalar Network500.node450 	discovery_latency 	384
scalar Network500.node450 	number_of_desired_resources 	20
scalar Network500.node450 	query_homogenity_rate 	33.333333333333
scalar Network500.node450 	qrecord_time 	5134
scalar Network500.node450 	discovery_resolution_rate 	100
scalar Network500.node280 	rate_of_requesters 	1
scalar Network500.node280 	number_of_resources 	27500
scalar Network500.node280 	time_period 	1
scalar Network500.node280 	number_of_messages 	66
scalar Network500.node280 	discovery_latency 	444
scalar Network500.node280 	number_of_desired_resources 	20
scalar Network500.node280 	query_homogenity_rate 	33.333333333333
scalar Network500.node280 	qrecord_time 	5134
scalar Network500.node280 	discovery_resolution_rate 	100
scalar Network500.node170 	rate_of_requesters 	1
scalar Network500.node170 	number_of_resources 	27500
scalar Network500.node170 	time_period 	1
scalar Network500.node170 	number_of_messages 	24
scalar Network500.node170 	discovery_latency 	396
scalar Network500.node170 	number_of_desired_resources 	20
scalar Network500.node170 	query_homogenity_rate 	33.333333333333
scalar Network500.node170 	qrecord_time 	5230
scalar Network500.node170 	discovery_resolution_rate 	100
scalar Network500.node140 	rate_of_requesters 	1
scalar Network500.node140 	number_of_resources 	27500
scalar Network500.node140 	time_period 	1
scalar Network500.node140 	number_of_messages 	38
scalar Network500.node140 	discovery_latency 	408
scalar Network500.node140 	number_of_desired_resources 	20
scalar Network500.node140 	query_homogenity_rate 	33.333333333333
scalar Network500.node140 	qrecord_time 	5242
scalar Network500.node140 	discovery_resolution_rate 	100
scalar Network500.node430 	rate_of_requesters 	1
scalar Network500.node430 	number_of_resources 	27500
scalar Network500.node430 	time_period 	1
scalar Network500.node430 	number_of_messages 	61
scalar Network500.node430 	discovery_latency 	576
scalar Network500.node430 	number_of_desired_resources 	20
scalar Network500.node430 	query_homogenity_rate 	33.333333333333
scalar Network500.node430 	qrecord_time 	5284
scalar Network500.node430 	discovery_resolution_rate 	100
scalar Network500.node100 	rate_of_requesters 	1
scalar Network500.node100 	number_of_resources 	27500
scalar Network500.node100 	time_period 	1
scalar Network500.node100 	number_of_messages 	57
scalar Network500.node100 	discovery_latency 	516
scalar Network500.node100 	number_of_desired_resources 	20
scalar Network500.node100 	query_homogenity_rate 	33.333333333333
scalar Network500.node100 	qrecord_time 	5290
scalar Network500.node100 	discovery_resolution_rate 	100
scalar Network500.node110 	rate_of_requesters 	1
scalar Network500.node110 	number_of_resources 	27500
scalar Network500.node110 	time_period 	1
scalar Network500.node110 	number_of_messages 	65
scalar Network500.node110 	discovery_latency 	636
scalar Network500.node110 	number_of_desired_resources 	20
scalar Network500.node110 	query_homogenity_rate 	33.333333333333
scalar Network500.node110 	qrecord_time 	5374
scalar Network500.node110 	discovery_resolution_rate 	100
scalar Network500.node480 	rate_of_requesters 	1
scalar Network500.node480 	number_of_resources 	27500
scalar Network500.node480 	time_period 	1
scalar Network500.node480 	number_of_messages 	55
scalar Network500.node480 	discovery_latency 	696
scalar Network500.node480 	number_of_desired_resources 	20
scalar Network500.node480 	query_homogenity_rate 	33.333333333333
scalar Network500.node480 	qrecord_time 	5386
scalar Network500.node480 	discovery_resolution_rate 	100
scalar Network500.node20 	rate_of_requesters 	1
scalar Network500.node20 	number_of_resources 	27500
scalar Network500.node20 	time_period 	1
scalar Network500.node20 	number_of_messages 	78
scalar Network500.node20 	discovery_latency 	780
scalar Network500.node20 	number_of_desired_resources 	20
scalar Network500.node20 	query_homogenity_rate 	33.333333333333
scalar Network500.node20 	qrecord_time 	5470
scalar Network500.node20 	discovery_resolution_rate 	100
scalar Network500.node400 	rate_of_requesters 	1
scalar Network500.node400 	number_of_resources 	27500
scalar Network500.node400 	time_period 	1
scalar Network500.node400 	number_of_messages 	69
scalar Network500.node400 	discovery_latency 	864
scalar Network500.node400 	number_of_desired_resources 	20
scalar Network500.node400 	query_homogenity_rate 	33.333333333333
scalar Network500.node400 	qrecord_time 	5590
scalar Network500.node400 	discovery_resolution_rate 	100
scalar Network500.node250 	rate_of_requesters 	1
scalar Network500.node250 	number_of_resources 	27500
scalar Network500.node250 	time_period 	1
scalar Network500.node250 	number_of_messages 	94
scalar Network500.node250 	discovery_latency 	1068
scalar Network500.node250 	number_of_desired_resources 	20
scalar Network500.node250 	query_homogenity_rate 	33.333333333333
scalar Network500.node250 	qrecord_time 	5764
scalar Network500.node250 	discovery_resolution_rate 	100
scalar Network500.node460 	rate_of_requesters 	1
scalar Network500.node460 	number_of_resources 	27500
scalar Network500.node460 	time_period 	1
scalar Network500.node460 	number_of_messages 	94
scalar Network500.node460 	discovery_latency 	1080
scalar Network500.node460 	number_of_desired_resources 	20
scalar Network500.node460 	query_homogenity_rate 	33.333333333333
scalar Network500.node460 	qrecord_time 	5824
scalar Network500.node460 	discovery_resolution_rate 	100
scalar Network500.node370 	rate_of_requesters 	1
scalar Network500.node370 	number_of_resources 	27500
scalar Network500.node370 	time_period 	1
scalar Network500.node370 	number_of_messages 	94
scalar Network500.node370 	discovery_latency 	1164
scalar Network500.node370 	number_of_desired_resources 	20
scalar Network500.node370 	query_homogenity_rate 	33.333333333333
scalar Network500.node370 	qrecord_time 	5860
scalar Network500.node370 	discovery_resolution_rate 	100
scalar Network500.node220 	rate_of_requesters 	1
scalar Network500.node220 	number_of_resources 	27500
scalar Network500.node220 	time_period 	1
scalar Network500.node220 	number_of_messages 	99
scalar Network500.node220 	discovery_latency 	1230
scalar Network500.node220 	number_of_desired_resources 	20
scalar Network500.node220 	query_homogenity_rate 	33.333333333333
scalar Network500.node220 	qrecord_time 	5920
scalar Network500.node220 	discovery_resolution_rate 	100
scalar Network500.node50 	rate_of_requesters 	1
scalar Network500.node50 	number_of_resources 	27500
scalar Network500.node50 	time_period 	1
scalar Network500.node50 	number_of_messages 	83
scalar Network500.node50 	discovery_latency 	1224
scalar Network500.node50 	number_of_desired_resources 	20
scalar Network500.node50 	query_homogenity_rate 	33.333333333333
scalar Network500.node50 	qrecord_time 	5932
scalar Network500.node50 	discovery_resolution_rate 	100
scalar Network500.node310 	rate_of_requesters 	1
scalar Network500.node310 	number_of_resources 	27500
scalar Network500.node310 	time_period 	1
scalar Network500.node310 	number_of_messages 	83
scalar Network500.node310 	discovery_latency 	1248
scalar Network500.node310 	number_of_desired_resources 	20
scalar Network500.node310 	query_homogenity_rate 	33.333333333333
scalar Network500.node310 	qrecord_time 	5956
scalar Network500.node310 	discovery_resolution_rate 	100
scalar Network500.node210 	rate_of_requesters 	1
scalar Network500.node210 	number_of_resources 	27500
scalar Network500.node210 	time_period 	1
scalar Network500.node210 	number_of_messages 	96
scalar Network500.node210 	discovery_latency 	1188
scalar Network500.node210 	number_of_desired_resources 	20
scalar Network500.node210 	query_homogenity_rate 	33.333333333333
scalar Network500.node210 	qrecord_time 	5956
scalar Network500.node210 	discovery_resolution_rate 	100
scalar Network500.node120 	rate_of_requesters 	1
scalar Network500.node120 	number_of_resources 	27500
scalar Network500.node120 	time_period 	1
scalar Network500.node120 	number_of_messages 	116
scalar Network500.node120 	discovery_latency 	1260
scalar Network500.node120 	number_of_desired_resources 	20
scalar Network500.node120 	query_homogenity_rate 	33.333333333333
scalar Network500.node120 	qrecord_time 	5998
scalar Network500.node120 	discovery_resolution_rate 	100
scalar Network500.node230 	rate_of_requesters 	1
scalar Network500.node230 	number_of_resources 	27500
scalar Network500.node230 	time_period 	1
scalar Network500.node230 	number_of_messages 	101
scalar Network500.node230 	discovery_latency 	1308
scalar Network500.node230 	number_of_desired_resources 	20
scalar Network500.node230 	query_homogenity_rate 	33.333333333333
scalar Network500.node230 	qrecord_time 	6022
scalar Network500.node230 	discovery_resolution_rate 	100
scalar Network500.node270 	rate_of_requesters 	1
scalar Network500.node270 	number_of_resources 	27500
scalar Network500.node270 	time_period 	1
scalar Network500.node270 	number_of_messages 	135
scalar Network500.node270 	discovery_latency 	1308
scalar Network500.node270 	number_of_desired_resources 	20
scalar Network500.node270 	query_homogenity_rate 	33.333333333333
scalar Network500.node270 	qrecord_time 	6022
scalar Network500.node270 	discovery_resolution_rate 	100
scalar Network500.node350 	rate_of_requesters 	1
scalar Network500.node350 	number_of_resources 	27500
scalar Network500.node350 	time_period 	1
scalar Network500.node350 	number_of_messages 	143
scalar Network500.node350 	discovery_latency 	1812
scalar Network500.node350 	number_of_desired_resources 	20
scalar Network500.node350 	query_homogenity_rate 	33.333333333333
scalar Network500.node350 	qrecord_time 	6520
scalar Network500.node350 	discovery_resolution_rate 	100
scalar Network500.node80 	rate_of_requesters 	1
scalar Network500.node80 	number_of_resources 	27500
scalar Network500.node80 	time_period 	1
scalar Network500.node80 	number_of_messages 	118
scalar Network500.node80 	discovery_latency 	1902
scalar Network500.node80 	number_of_desired_resources 	20
scalar Network500.node80 	query_homogenity_rate 	33.333333333333
scalar Network500.node80 	qrecord_time 	6574
scalar Network500.node80 	discovery_resolution_rate 	100
scalar Network500.node160 	rate_of_requesters 	1
scalar Network500.node160 	number_of_resources 	27500
scalar Network500.node160 	time_period 	1
scalar Network500.node160 	number_of_messages 	145
scalar Network500.node160 	discovery_latency 	1872
scalar Network500.node160 	number_of_desired_resources 	20
scalar Network500.node160 	query_homogenity_rate 	33.333333333333
scalar Network500.node160 	qrecord_time 	6604
scalar Network500.node160 	discovery_resolution_rate 	100
scalar Network500.node210 	rate_of_requesters 	1
scalar Network500.node210 	number_of_resources 	27500
scalar Network500.node210 	time_period 	2
scalar Network500.node210 	number_of_messages 	31
scalar Network500.node210 	discovery_latency 	342
scalar Network500.node210 	number_of_desired_resources 	20
scalar Network500.node210 	query_homogenity_rate 	33.333333333333
scalar Network500.node210 	qrecord_time 	7640
scalar Network500.node210 	discovery_resolution_rate 	100
scalar Network500.node400 	rate_of_requesters 	1
scalar Network500.node400 	number_of_resources 	27500
scalar Network500.node400 	time_period 	2
scalar Network500.node400 	number_of_messages 	92
scalar Network500.node400 	discovery_latency 	912
scalar Network500.node400 	number_of_desired_resources 	20
scalar Network500.node400 	query_homogenity_rate 	33.333333333333
scalar Network500.node400 	qrecord_time 	7737
scalar Network500.node400 	discovery_resolution_rate 	100
scalar Network500.node280 	rate_of_requesters 	1
scalar Network500.node280 	number_of_resources 	27500
scalar Network500.node280 	time_period 	2
scalar Network500.node280 	number_of_messages 	134
scalar Network500.node280 	discovery_latency 	1092
scalar Network500.node280 	number_of_desired_resources 	20
scalar Network500.node280 	query_homogenity_rate 	33.333333333333
scalar Network500.node280 	qrecord_time 	7951
scalar Network500.node280 	discovery_resolution_rate 	100
scalar Network500.node250 	rate_of_requesters 	1
scalar Network500.node250 	number_of_resources 	27500
scalar Network500.node250 	time_period 	2
scalar Network500.node250 	number_of_messages 	82
scalar Network500.node250 	discovery_latency 	1092
scalar Network500.node250 	number_of_desired_resources 	20
scalar Network500.node250 	query_homogenity_rate 	33.333333333333
scalar Network500.node250 	qrecord_time 	8578
scalar Network500.node250 	discovery_resolution_rate 	100
scalar Network500.node60 	rate_of_requesters 	1
scalar Network500.node60 	number_of_resources 	27500
scalar Network500.node60 	time_period 	2
scalar Network500.node60 	number_of_messages 	125
scalar Network500.node60 	discovery_latency 	1596
scalar Network500.node60 	number_of_desired_resources 	20
scalar Network500.node60 	query_homogenity_rate 	33.333333333333
scalar Network500.node60 	qrecord_time 	8626
scalar Network500.node60 	discovery_resolution_rate 	100
scalar Network500.node120 	rate_of_requesters 	1
scalar Network500.node120 	number_of_resources 	27500
scalar Network500.node120 	time_period 	2
scalar Network500.node120 	number_of_messages 	161
scalar Network500.node120 	discovery_latency 	1572
scalar Network500.node120 	number_of_desired_resources 	20
scalar Network500.node120 	query_homogenity_rate 	33.333333333333
scalar Network500.node120 	qrecord_time 	8970
scalar Network500.node120 	discovery_resolution_rate 	100
scalar Network500.node330 	rate_of_requesters 	1
scalar Network500.node330 	number_of_resources 	27500
scalar Network500.node330 	time_period 	2
scalar Network500.node330 	number_of_messages 	168
scalar Network500.node330 	discovery_latency 	1518
scalar Network500.node330 	number_of_desired_resources 	20
scalar Network500.node330 	query_homogenity_rate 	33.333333333333
scalar Network500.node330 	qrecord_time 	9086
scalar Network500.node330 	discovery_resolution_rate 	100
scalar Network500.node80 	rate_of_requesters 	1
scalar Network500.node80 	number_of_resources 	27500
scalar Network500.node80 	time_period 	2
scalar Network500.node80 	number_of_messages 	112
scalar Network500.node80 	discovery_latency 	1056
scalar Network500.node80 	number_of_desired_resources 	20
scalar Network500.node80 	query_homogenity_rate 	33.333333333333
scalar Network500.node80 	qrecord_time 	9422
scalar Network500.node80 	discovery_resolution_rate 	100
scalar Network500.node160 	rate_of_requesters 	1
scalar Network500.node160 	number_of_resources 	27500
scalar Network500.node160 	time_period 	2
scalar Network500.node160 	number_of_messages 	156
scalar Network500.node160 	discovery_latency 	2172
scalar Network500.node160 	number_of_desired_resources 	20
scalar Network500.node160 	query_homogenity_rate 	33.333333333333
scalar Network500.node160 	qrecord_time 	9791
scalar Network500.node160 	discovery_resolution_rate 	100
scalar Network500.node110 	rate_of_requesters 	1
scalar Network500.node110 	number_of_resources 	27500
scalar Network500.node110 	time_period 	2
scalar Network500.node110 	number_of_messages 	273
scalar Network500.node110 	discovery_latency 	1866
scalar Network500.node110 	number_of_desired_resources 	20
scalar Network500.node110 	query_homogenity_rate 	33.333333333333
scalar Network500.node110 	qrecord_time 	9828
scalar Network500.node110 	discovery_resolution_rate 	100
scalar Network500.node490 	rate_of_requesters 	1
scalar Network500.node490 	number_of_resources 	27500
scalar Network500.node490 	time_period 	2
scalar Network500.node490 	number_of_messages 	157
scalar Network500.node490 	discovery_latency 	2382
scalar Network500.node490 	number_of_desired_resources 	20
scalar Network500.node490 	query_homogenity_rate 	33.333333333333
scalar Network500.node490 	qrecord_time 	10016
scalar Network500.node490 	discovery_resolution_rate 	100
scalar Network500.node140 	rate_of_requesters 	1
scalar Network500.node140 	number_of_resources 	27500
scalar Network500.node140 	time_period 	2
scalar Network500.node140 	number_of_messages 	254
scalar Network500.node140 	discovery_latency 	1884
scalar Network500.node140 	number_of_desired_resources 	20
scalar Network500.node140 	query_homogenity_rate 	33.333333333333
scalar Network500.node140 	qrecord_time 	10324
scalar Network500.node140 	discovery_resolution_rate 	100
scalar Network500.node350 	rate_of_requesters 	1
scalar Network500.node350 	number_of_resources 	27500
scalar Network500.node350 	time_period 	2
scalar Network500.node350 	number_of_messages 	285
scalar Network500.node350 	discovery_latency 	2718
scalar Network500.node350 	number_of_desired_resources 	20
scalar Network500.node350 	query_homogenity_rate 	33.333333333333
scalar Network500.node350 	qrecord_time 	10438
scalar Network500.node350 	discovery_resolution_rate 	100
scalar Network500.node290 	rate_of_requesters 	1
scalar Network500.node290 	number_of_resources 	27500
scalar Network500.node290 	time_period 	2
scalar Network500.node290 	number_of_messages 	281
scalar Network500.node290 	discovery_latency 	2094
scalar Network500.node290 	number_of_desired_resources 	20
scalar Network500.node290 	query_homogenity_rate 	33.333333333333
scalar Network500.node290 	qrecord_time 	10461
scalar Network500.node290 	discovery_resolution_rate 	100
scalar Network500.node430 	rate_of_requesters 	1
scalar Network500.node430 	number_of_resources 	27500
scalar Network500.node430 	time_period 	2
scalar Network500.node430 	number_of_messages 	229
scalar Network500.node430 	discovery_latency 	1752
scalar Network500.node430 	number_of_desired_resources 	20
scalar Network500.node430 	query_homogenity_rate 	33.333333333333
scalar Network500.node430 	qrecord_time 	10503
scalar Network500.node430 	discovery_resolution_rate 	100
scalar Network500.node190 	rate_of_requesters 	1
scalar Network500.node190 	number_of_resources 	27500
scalar Network500.node190 	time_period 	2
scalar Network500.node190 	number_of_messages 	293
scalar Network500.node190 	discovery_latency 	2064
scalar Network500.node190 	number_of_desired_resources 	20
scalar Network500.node190 	query_homogenity_rate 	33.333333333333
scalar Network500.node190 	qrecord_time 	10503
scalar Network500.node190 	discovery_resolution_rate 	100
scalar Network500.node420 	rate_of_requesters 	1
scalar Network500.node420 	number_of_resources 	27500
scalar Network500.node420 	time_period 	2
scalar Network500.node420 	number_of_messages 	256
scalar Network500.node420 	discovery_latency 	2028
scalar Network500.node420 	number_of_desired_resources 	20
scalar Network500.node420 	query_homogenity_rate 	33.333333333333
scalar Network500.node420 	qrecord_time 	10564
scalar Network500.node420 	discovery_resolution_rate 	100
scalar Network500.node360 	rate_of_requesters 	1
scalar Network500.node360 	number_of_resources 	27500
scalar Network500.node360 	time_period 	2
scalar Network500.node360 	number_of_messages 	173
scalar Network500.node360 	discovery_latency 	1800
scalar Network500.node360 	number_of_desired_resources 	20
scalar Network500.node360 	query_homogenity_rate 	33.333333333333
scalar Network500.node360 	qrecord_time 	10668
scalar Network500.node360 	discovery_resolution_rate 	100
scalar Network500.node440 	rate_of_requesters 	1
scalar Network500.node440 	number_of_resources 	27500
scalar Network500.node440 	time_period 	2
scalar Network500.node440 	number_of_messages 	336
scalar Network500.node440 	discovery_latency 	3036
scalar Network500.node440 	number_of_desired_resources 	20
scalar Network500.node440 	query_homogenity_rate 	33.333333333333
scalar Network500.node440 	qrecord_time 	11578
scalar Network500.node440 	discovery_resolution_rate 	100
scalar Network500.node380 	rate_of_requesters 	1
scalar Network500.node380 	number_of_resources 	27500
scalar Network500.node380 	time_period 	2
scalar Network500.node380 	number_of_messages 	220
scalar Network500.node380 	discovery_latency 	2862
scalar Network500.node380 	number_of_desired_resources 	20
scalar Network500.node380 	query_homogenity_rate 	33.333333333333
scalar Network500.node380 	qrecord_time 	11610
scalar Network500.node380 	discovery_resolution_rate 	100
scalar Network500.node200 	rate_of_requesters 	1
scalar Network500.node200 	number_of_resources 	27500
scalar Network500.node200 	time_period 	2
scalar Network500.node200 	number_of_messages 	419
scalar Network500.node200 	discovery_latency 	2622
scalar Network500.node200 	number_of_desired_resources 	20
scalar Network500.node200 	query_homogenity_rate 	33.333333333333
scalar Network500.node200 	qrecord_time 	11614
scalar Network500.node200 	discovery_resolution_rate 	100
scalar Network500.node90 	rate_of_requesters 	1
scalar Network500.node90 	number_of_resources 	27500
scalar Network500.node90 	time_period 	2
scalar Network500.node90 	number_of_messages 	268
scalar Network500.node90 	discovery_latency 	2904
scalar Network500.node90 	number_of_desired_resources 	20
scalar Network500.node90 	query_homogenity_rate 	33.333333333333
scalar Network500.node90 	qrecord_time 	11640
scalar Network500.node90 	discovery_resolution_rate 	100
scalar Network500.node470 	rate_of_requesters 	1
scalar Network500.node470 	number_of_resources 	27500
scalar Network500.node470 	time_period 	2
scalar Network500.node470 	number_of_messages 	253
scalar Network500.node470 	discovery_latency 	2820
scalar Network500.node470 	number_of_desired_resources 	20
scalar Network500.node470 	query_homogenity_rate 	33.333333333333
scalar Network500.node470 	qrecord_time 	11694
scalar Network500.node470 	discovery_resolution_rate 	100
scalar Network500.node410 	rate_of_requesters 	1
scalar Network500.node410 	number_of_resources 	27500
scalar Network500.node410 	time_period 	2
scalar Network500.node410 	number_of_messages 	336
scalar Network500.node410 	discovery_latency 	2520
scalar Network500.node410 	number_of_desired_resources 	20
scalar Network500.node410 	query_homogenity_rate 	33.333333333333
scalar Network500.node410 	qrecord_time 	11793
scalar Network500.node410 	discovery_resolution_rate 	100
scalar Network500.node240 	rate_of_requesters 	1
scalar Network500.node240 	number_of_resources 	27500
scalar Network500.node240 	time_period 	2
scalar Network500.node240 	number_of_messages 	343
scalar Network500.node240 	discovery_latency 	2868
scalar Network500.node240 	number_of_desired_resources 	20
scalar Network500.node240 	query_homogenity_rate 	33.333333333333
scalar Network500.node240 	qrecord_time 	11967
scalar Network500.node240 	discovery_resolution_rate 	100
scalar Network500.node260 	rate_of_requesters 	1
scalar Network500.node260 	number_of_resources 	27500
scalar Network500.node260 	time_period 	2
scalar Network500.node260 	number_of_messages 	506
scalar Network500.node260 	discovery_latency 	4572
scalar Network500.node260 	number_of_desired_resources 	20
scalar Network500.node260 	query_homogenity_rate 	33.333333333333
scalar Network500.node260 	qrecord_time 	13879
scalar Network500.node260 	discovery_resolution_rate 	100
scalar Network500.node0 	rate_of_requesters 	1
scalar Network500.node0 	number_of_resources 	27500
scalar Network500.node0 	time_period 	2
scalar Network500.node0 	number_of_messages 	662
scalar Network500.node0 	discovery_latency 	4884
scalar Network500.node0 	number_of_desired_resources 	20
scalar Network500.node0 	query_homogenity_rate 	33.333333333333
scalar Network500.node0 	qrecord_time 	14011
scalar Network500.node0 	discovery_resolution_rate 	66.666666666667
scalar Network500.node150 	rate_of_requesters 	1
scalar Network500.node150 	number_of_resources 	27500
scalar Network500.node150 	time_period 	2
scalar Network500.node150 	number_of_messages 	199
scalar Network500.node150 	discovery_latency 	4740
scalar Network500.node150 	number_of_desired_resources 	20
scalar Network500.node150 	query_homogenity_rate 	33.333333333333
scalar Network500.node150 	qrecord_time 	14036
scalar Network500.node150 	discovery_resolution_rate 	66.666666666667
scalar Network500.node480 	rate_of_requesters 	1
scalar Network500.node480 	number_of_resources 	27500
scalar Network500.node480 	time_period 	2
scalar Network500.node480 	number_of_messages 	182
scalar Network500.node480 	discovery_latency 	5280
scalar Network500.node480 	number_of_desired_resources 	20
scalar Network500.node480 	query_homogenity_rate 	33.333333333333
scalar Network500.node480 	qrecord_time 	14306.999999999
scalar Network500.node480 	discovery_resolution_rate 	66.666666666667
scalar Network500.node70 	rate_of_requesters 	1
scalar Network500.node70 	number_of_resources 	27500
scalar Network500.node70 	time_period 	2
scalar Network500.node70 	number_of_messages 	337
scalar Network500.node70 	discovery_latency 	5184
scalar Network500.node70 	number_of_desired_resources 	20
scalar Network500.node70 	query_homogenity_rate 	33.333333333333
scalar Network500.node70 	qrecord_time 	14348
scalar Network500.node70 	discovery_resolution_rate 	50
scalar Network500.node30 	rate_of_requesters 	1
scalar Network500.node30 	number_of_resources 	27500
scalar Network500.node30 	time_period 	2
scalar Network500.node30 	number_of_messages 	126
scalar Network500.node30 	discovery_latency 	5220
scalar Network500.node30 	number_of_desired_resources 	20
scalar Network500.node30 	query_homogenity_rate 	33.333333333333
scalar Network500.node30 	qrecord_time 	14456
scalar Network500.node30 	discovery_resolution_rate 	33.333333333333
scalar Network500.node370 	rate_of_requesters 	1
scalar Network500.node370 	number_of_resources 	27500
scalar Network500.node370 	time_period 	2
scalar Network500.node370 	number_of_messages 	23
scalar Network500.node370 	discovery_latency 	4914
scalar Network500.node370 	number_of_desired_resources 	20
scalar Network500.node370 	query_homogenity_rate 	33.333333333333
scalar Network500.node370 	qrecord_time 	14702
scalar Network500.node370 	discovery_resolution_rate 	33.333333333333
scalar Network500.node320 	rate_of_requesters 	1
scalar Network500.node320 	number_of_resources 	27500
scalar Network500.node320 	time_period 	2
scalar Network500.node320 	number_of_messages 	2
scalar Network500.node320 	discovery_latency 	5208
scalar Network500.node320 	number_of_desired_resources 	20
scalar Network500.node320 	query_homogenity_rate 	33.333333333333
scalar Network500.node320 	qrecord_time 	14777
scalar Network500.node320 	discovery_resolution_rate 	0
scalar Network500.node280 	rate_of_requesters 	1
scalar Network500.node280 	number_of_resources 	27500
scalar Network500.node280 	time_period 	3
scalar Network500.node280 	number_of_messages 	126
scalar Network500.node280 	discovery_latency 	5196
scalar Network500.node280 	number_of_desired_resources 	20
scalar Network500.node280 	query_homogenity_rate 	33.333333333333
scalar Network500.node280 	qrecord_time 	14885
scalar Network500.node280 	discovery_resolution_rate 	33.333333333333
scalar Network500.node270 	rate_of_requesters 	1
scalar Network500.node270 	number_of_resources 	27500
scalar Network500.node270 	time_period 	2
scalar Network500.node270 	number_of_messages 	2
scalar Network500.node270 	discovery_latency 	5208
scalar Network500.node270 	number_of_desired_resources 	20
scalar Network500.node270 	query_homogenity_rate 	33.333333333333
scalar Network500.node270 	qrecord_time 	14904
scalar Network500.node270 	discovery_resolution_rate 	0
scalar Network500.node390 	rate_of_requesters 	1
scalar Network500.node390 	number_of_resources 	27500
scalar Network500.node390 	time_period 	2
scalar Network500.node390 	number_of_messages 	258
scalar Network500.node390 	discovery_latency 	5316
scalar Network500.node390 	number_of_desired_resources 	20
scalar Network500.node390 	query_homogenity_rate 	33.333333333333
scalar Network500.node390 	qrecord_time 	14914
scalar Network500.node390 	discovery_resolution_rate 	16.666666666667
scalar Network500.node460 	rate_of_requesters 	1
scalar Network500.node460 	number_of_resources 	27500
scalar Network500.node460 	time_period 	2
scalar Network500.node460 	number_of_messages 	184
scalar Network500.node460 	discovery_latency 	4896
scalar Network500.node460 	number_of_desired_resources 	20
scalar Network500.node460 	query_homogenity_rate 	33.333333333333
scalar Network500.node460 	qrecord_time 	15114
scalar Network500.node460 	discovery_resolution_rate 	33.333333333333
scalar Network500.node210 	rate_of_requesters 	1
scalar Network500.node210 	number_of_resources 	27500
scalar Network500.node210 	time_period 	3
scalar Network500.node210 	number_of_messages 	2
scalar Network500.node210 	discovery_latency 	5256
scalar Network500.node210 	number_of_desired_resources 	20
scalar Network500.node210 	query_homogenity_rate 	33.333333333333
scalar Network500.node210 	qrecord_time 	15204
scalar Network500.node210 	discovery_resolution_rate 	0
scalar Network500.node100 	rate_of_requesters 	1
scalar Network500.node100 	number_of_resources 	27500
scalar Network500.node100 	time_period 	2
scalar Network500.node100 	number_of_messages 	2
scalar Network500.node100 	discovery_latency 	5244
scalar Network500.node100 	number_of_desired_resources 	20
scalar Network500.node100 	query_homogenity_rate 	33.333333333333
scalar Network500.node100 	qrecord_time 	15231
scalar Network500.node100 	discovery_resolution_rate 	0
scalar Network500.node220 	rate_of_requesters 	1
scalar Network500.node220 	number_of_resources 	27500
scalar Network500.node220 	time_period 	2
scalar Network500.node220 	number_of_messages 	2
scalar Network500.node220 	discovery_latency 	5280
scalar Network500.node220 	number_of_desired_resources 	20
scalar Network500.node220 	query_homogenity_rate 	33.333333333333
scalar Network500.node220 	qrecord_time 	15235
scalar Network500.node220 	discovery_resolution_rate 	0
scalar Network500.node10 	rate_of_requesters 	1
scalar Network500.node10 	number_of_resources 	27500
scalar Network500.node10 	time_period 	2
scalar Network500.node10 	number_of_messages 	88
scalar Network500.node10 	discovery_latency 	5256
scalar Network500.node10 	number_of_desired_resources 	20
scalar Network500.node10 	query_homogenity_rate 	33.333333333333
scalar Network500.node10 	qrecord_time 	15287
scalar Network500.node10 	discovery_resolution_rate 	33.333333333333
scalar Network500.node170 	rate_of_requesters 	1
scalar Network500.node170 	number_of_resources 	27500
scalar Network500.node170 	time_period 	2
scalar Network500.node170 	number_of_messages 	184
scalar Network500.node170 	discovery_latency 	4950
scalar Network500.node170 	number_of_desired_resources 	20
scalar Network500.node170 	query_homogenity_rate 	33.333333333333
scalar Network500.node170 	qrecord_time 	15292
scalar Network500.node170 	discovery_resolution_rate 	33.333333333333
scalar Network500.node120 	rate_of_requesters 	1
scalar Network500.node120 	number_of_resources 	27500
scalar Network500.node120 	time_period 	3
scalar Network500.node120 	number_of_messages 	2
scalar Network500.node120 	discovery_latency 	5292
scalar Network500.node120 	number_of_desired_resources 	20
scalar Network500.node120 	query_homogenity_rate 	33.333333333333
scalar Network500.node120 	qrecord_time 	15327
scalar Network500.node120 	discovery_resolution_rate 	0
scalar Network500.node40 	rate_of_requesters 	1
scalar Network500.node40 	number_of_resources 	27500
scalar Network500.node40 	time_period 	2
scalar Network500.node40 	number_of_messages 	292
scalar Network500.node40 	discovery_latency 	5292
scalar Network500.node40 	number_of_desired_resources 	20
scalar Network500.node40 	query_homogenity_rate 	33.333333333333
scalar Network500.node40 	qrecord_time 	15349
scalar Network500.node40 	discovery_resolution_rate 	16.666666666667
scalar Network500.node50 	rate_of_requesters 	1
scalar Network500.node50 	number_of_resources 	27500
scalar Network500.node50 	time_period 	2
scalar Network500.node50 	number_of_messages 	2
scalar Network500.node50 	discovery_latency 	5244
scalar Network500.node50 	number_of_desired_resources 	20
scalar Network500.node50 	query_homogenity_rate 	33.333333333333
scalar Network500.node50 	qrecord_time 	15381
scalar Network500.node50 	discovery_resolution_rate 	0
scalar Network500.node180 	rate_of_requesters 	1
scalar Network500.node180 	number_of_resources 	27500
scalar Network500.node180 	time_period 	2
scalar Network500.node180 	number_of_messages 	2
scalar Network500.node180 	discovery_latency 	5316
scalar Network500.node180 	number_of_desired_resources 	20
scalar Network500.node180 	query_homogenity_rate 	33.333333333333
scalar Network500.node180 	qrecord_time 	15463
scalar Network500.node180 	discovery_resolution_rate 	0
scalar Network500.node310 	rate_of_requesters 	1
scalar Network500.node310 	number_of_resources 	27500
scalar Network500.node310 	time_period 	2
scalar Network500.node310 	number_of_messages 	2
scalar Network500.node310 	discovery_latency 	5376
scalar Network500.node310 	number_of_desired_resources 	20
scalar Network500.node310 	query_homogenity_rate 	33.333333333333
scalar Network500.node310 	qrecord_time 	15531
scalar Network500.node310 	discovery_resolution_rate 	0
scalar Network500.node160 	rate_of_requesters 	1
scalar Network500.node160 	number_of_resources 	27500
scalar Network500.node160 	time_period 	3
scalar Network500.node160 	number_of_messages 	37
scalar Network500.node160 	discovery_latency 	5364
scalar Network500.node160 	number_of_desired_resources 	20
scalar Network500.node160 	query_homogenity_rate 	33.333333333333
scalar Network500.node160 	qrecord_time 	15563
scalar Network500.node160 	discovery_resolution_rate 	33.333333333333
scalar Network500.node300 	rate_of_requesters 	1
scalar Network500.node300 	number_of_resources 	27500
scalar Network500.node300 	time_period 	2
scalar Network500.node300 	number_of_messages 	2
scalar Network500.node300 	discovery_latency 	5088
scalar Network500.node300 	number_of_desired_resources 	20
scalar Network500.node300 	query_homogenity_rate 	33.333333333333
scalar Network500.node300 	qrecord_time 	15636
scalar Network500.node300 	discovery_resolution_rate 	0
scalar Network500.node230 	rate_of_requesters 	1
scalar Network500.node230 	number_of_resources 	27500
scalar Network500.node230 	time_period 	2
scalar Network500.node230 	number_of_messages 	54
scalar Network500.node230 	discovery_latency 	5208
scalar Network500.node230 	number_of_desired_resources 	20
scalar Network500.node230 	query_homogenity_rate 	33.333333333333
scalar Network500.node230 	qrecord_time 	15653
scalar Network500.node230 	discovery_resolution_rate 	33.333333333333
scalar Network500.node450 	rate_of_requesters 	1
scalar Network500.node450 	number_of_resources 	27500
scalar Network500.node450 	time_period 	2
scalar Network500.node450 	number_of_messages 	2
scalar Network500.node450 	discovery_latency 	5268
scalar Network500.node450 	number_of_desired_resources 	20
scalar Network500.node450 	query_homogenity_rate 	33.333333333333
scalar Network500.node450 	qrecord_time 	15713
scalar Network500.node450 	discovery_resolution_rate 	0
scalar Network500.node430 	rate_of_requesters 	1
scalar Network500.node430 	number_of_resources 	27500
scalar Network500.node430 	time_period 	3
scalar Network500.node430 	number_of_messages 	45
scalar Network500.node430 	discovery_latency 	4854
scalar Network500.node430 	number_of_desired_resources 	20
scalar Network500.node430 	query_homogenity_rate 	33.333333333333
scalar Network500.node430 	qrecord_time 	15749
scalar Network500.node430 	discovery_resolution_rate 	66.666666666667
scalar Network500.node20 	rate_of_requesters 	1
scalar Network500.node20 	number_of_resources 	27500
scalar Network500.node20 	time_period 	2
scalar Network500.node20 	number_of_messages 	2
scalar Network500.node20 	discovery_latency 	5508
scalar Network500.node20 	number_of_desired_resources 	20
scalar Network500.node20 	query_homogenity_rate 	33.333333333333
scalar Network500.node20 	qrecord_time 	15816
scalar Network500.node20 	discovery_resolution_rate 	0
scalar Network500.node340 	rate_of_requesters 	1
scalar Network500.node340 	number_of_resources 	27500
scalar Network500.node340 	time_period 	2
scalar Network500.node340 	number_of_messages 	23
scalar Network500.node340 	discovery_latency 	5400
scalar Network500.node340 	number_of_desired_resources 	20
scalar Network500.node340 	query_homogenity_rate 	33.333333333333
scalar Network500.node340 	qrecord_time 	15827
scalar Network500.node340 	discovery_resolution_rate 	33.333333333333
scalar Network500.node130 	rate_of_requesters 	1
scalar Network500.node130 	number_of_resources 	27500
scalar Network500.node130 	time_period 	2
scalar Network500.node130 	number_of_messages 	2
scalar Network500.node130 	discovery_latency 	5292
scalar Network500.node130 	number_of_desired_resources 	20
scalar Network500.node130 	query_homogenity_rate 	33.333333333333
scalar Network500.node130 	qrecord_time 	16041
scalar Network500.node130 	discovery_resolution_rate 	0
scalar Network500.node110 	rate_of_requesters 	1
scalar Network500.node110 	number_of_resources 	27500
scalar Network500.node110 	time_period 	3
scalar Network500.node110 	number_of_messages 	2
scalar Network500.node110 	discovery_latency 	5376
scalar Network500.node110 	number_of_desired_resources 	20
scalar Network500.node110 	query_homogenity_rate 	33.333333333333
scalar Network500.node110 	qrecord_time 	16151
scalar Network500.node110 	discovery_resolution_rate 	0
scalar Network500.node420 	rate_of_requesters 	1
scalar Network500.node420 	number_of_resources 	27500
scalar Network500.node420 	time_period 	3
scalar Network500.node420 	number_of_messages 	2
scalar Network500.node420 	discovery_latency 	5424
scalar Network500.node420 	number_of_desired_resources 	20
scalar Network500.node420 	query_homogenity_rate 	33.333333333333
scalar Network500.node420 	qrecord_time 	16444
scalar Network500.node420 	discovery_resolution_rate 	0
scalar Network500.node70 	rate_of_requesters 	1
scalar Network500.node70 	number_of_resources 	27500
scalar Network500.node70 	time_period 	3
scalar Network500.node70 	number_of_messages 	2
scalar Network500.node70 	discovery_latency 	5364
scalar Network500.node70 	number_of_desired_resources 	20
scalar Network500.node70 	query_homogenity_rate 	33.333333333333
scalar Network500.node70 	qrecord_time 	16692
scalar Network500.node70 	discovery_resolution_rate 	0
scalar Network500.node490 	rate_of_requesters 	1
scalar Network500.node490 	number_of_resources 	27500
scalar Network500.node490 	time_period 	3
scalar Network500.node490 	number_of_messages 	0
scalar Network500.node490 	discovery_latency 	5304
scalar Network500.node490 	number_of_desired_resources 	20
scalar Network500.node490 	query_homogenity_rate 	33.333333333333
scalar Network500.node490 	qrecord_time 	16943
scalar Network500.node490 	discovery_resolution_rate 	0
scalar Network500.node350 	rate_of_requesters 	1
scalar Network500.node350 	number_of_resources 	27500
scalar Network500.node350 	time_period 	3
scalar Network500.node350 	number_of_messages 	2
scalar Network500.node350 	discovery_latency 	5292
scalar Network500.node350 	number_of_desired_resources 	20
scalar Network500.node350 	query_homogenity_rate 	33.333333333333
scalar Network500.node350 	qrecord_time 	17139
scalar Network500.node350 	discovery_resolution_rate 	0
scalar Network500.node250 	rate_of_requesters 	1
scalar Network500.node250 	number_of_resources 	27500
scalar Network500.node250 	time_period 	3
scalar Network500.node250 	number_of_messages 	0
scalar Network500.node250 	discovery_latency 	5232
scalar Network500.node250 	number_of_desired_resources 	20
scalar Network500.node250 	query_homogenity_rate 	33.333333333333
scalar Network500.node250 	qrecord_time 	17156
scalar Network500.node250 	discovery_resolution_rate 	0
scalar Network500.node200 	rate_of_requesters 	1
scalar Network500.node200 	number_of_resources 	27500
scalar Network500.node200 	time_period 	3
scalar Network500.node200 	number_of_messages 	2
scalar Network500.node200 	discovery_latency 	5280
scalar Network500.node200 	number_of_desired_resources 	20
scalar Network500.node200 	query_homogenity_rate 	33.333333333333
scalar Network500.node200 	qrecord_time 	17169
scalar Network500.node200 	discovery_resolution_rate 	0
scalar Network500.node340 	rate_of_requesters 	1
scalar Network500.node340 	number_of_resources 	27500
scalar Network500.node340 	time_period 	4
scalar Network500.node340 	number_of_messages 	21
scalar Network500.node340 	discovery_latency 	174
scalar Network500.node340 	number_of_desired_resources 	20
scalar Network500.node340 	query_homogenity_rate 	33.333333333333
scalar Network500.node340 	qrecord_time 	17251
scalar Network500.node340 	discovery_resolution_rate 	100
scalar Network500.node400 	rate_of_requesters 	1
scalar Network500.node400 	number_of_resources 	27500
scalar Network500.node400 	time_period 	3
scalar Network500.node400 	number_of_messages 	2
scalar Network500.node400 	discovery_latency 	5268
scalar Network500.node400 	number_of_desired_resources 	20
scalar Network500.node400 	query_homogenity_rate 	33.333333333333
scalar Network500.node400 	qrecord_time 	17265
scalar Network500.node400 	discovery_resolution_rate 	0
scalar Network500.node260 	rate_of_requesters 	1
scalar Network500.node260 	number_of_resources 	27500
scalar Network500.node260 	time_period 	3
scalar Network500.node260 	number_of_messages 	2
scalar Network500.node260 	discovery_latency 	5352
scalar Network500.node260 	number_of_desired_resources 	20
scalar Network500.node260 	query_homogenity_rate 	33.333333333333
scalar Network500.node260 	qrecord_time 	17324
scalar Network500.node260 	discovery_resolution_rate 	0
scalar Network500.node90 	rate_of_requesters 	1
scalar Network500.node90 	number_of_resources 	27500
scalar Network500.node90 	time_period 	3
scalar Network500.node90 	number_of_messages 	2
scalar Network500.node90 	discovery_latency 	5340
scalar Network500.node90 	number_of_desired_resources 	20
scalar Network500.node90 	query_homogenity_rate 	33.333333333333
scalar Network500.node90 	qrecord_time 	17399
scalar Network500.node90 	discovery_resolution_rate 	0
scalar Network500.node80 	rate_of_requesters 	1
scalar Network500.node80 	number_of_resources 	27500
scalar Network500.node80 	time_period 	3
scalar Network500.node80 	number_of_messages 	0
scalar Network500.node80 	discovery_latency 	5256
scalar Network500.node80 	number_of_desired_resources 	20
scalar Network500.node80 	query_homogenity_rate 	33.333333333333
scalar Network500.node80 	qrecord_time 	17431
scalar Network500.node80 	discovery_resolution_rate 	0
scalar Network500.node30 	rate_of_requesters 	1
scalar Network500.node30 	number_of_resources 	27500
scalar Network500.node30 	time_period 	3
scalar Network500.node30 	number_of_messages 	2
scalar Network500.node30 	discovery_latency 	5364
scalar Network500.node30 	number_of_desired_resources 	20
scalar Network500.node30 	query_homogenity_rate 	33.333333333333
scalar Network500.node30 	qrecord_time 	17473
scalar Network500.node30 	discovery_resolution_rate 	0
scalar Network500.node140 	rate_of_requesters 	1
scalar Network500.node140 	number_of_resources 	27500
scalar Network500.node140 	time_period 	3
scalar Network500.node140 	number_of_messages 	2
scalar Network500.node140 	discovery_latency 	5256
scalar Network500.node140 	number_of_desired_resources 	20
scalar Network500.node140 	query_homogenity_rate 	33.333333333333
scalar Network500.node140 	qrecord_time 	17516
scalar Network500.node140 	discovery_resolution_rate 	0
scalar Network500.node0 	rate_of_requesters 	1
scalar Network500.node0 	number_of_resources 	27500
scalar Network500.node0 	time_period 	3
scalar Network500.node0 	number_of_messages 	2
scalar Network500.node0 	discovery_latency 	5256
scalar Network500.node0 	number_of_desired_resources 	20
scalar Network500.node0 	query_homogenity_rate 	33.333333333333
scalar Network500.node0 	qrecord_time 	17636
scalar Network500.node0 	discovery_resolution_rate 	0
scalar Network500.node160 	rate_of_requesters 	1
scalar Network500.node160 	number_of_resources 	27500
scalar Network500.node160 	time_period 	5
scalar Network500.node160 	number_of_messages 	32
scalar Network500.node160 	discovery_latency 	252
scalar Network500.node160 	number_of_desired_resources 	20
scalar Network500.node160 	query_homogenity_rate 	33.333333333333
scalar Network500.node160 	qrecord_time 	17689
scalar Network500.node160 	discovery_resolution_rate 	100
scalar Network500.node290 	rate_of_requesters 	1
scalar Network500.node290 	number_of_resources 	27500
scalar Network500.node290 	time_period 	3
scalar Network500.node290 	number_of_messages 	2
scalar Network500.node290 	discovery_latency 	5268
scalar Network500.node290 	number_of_desired_resources 	20
scalar Network500.node290 	query_homogenity_rate 	33.333333333333
scalar Network500.node290 	qrecord_time 	17721.999999999
scalar Network500.node290 	discovery_resolution_rate 	0
scalar Network500.node330 	rate_of_requesters 	1
scalar Network500.node330 	number_of_resources 	27500
scalar Network500.node330 	time_period 	3
scalar Network500.node330 	number_of_messages 	2
scalar Network500.node330 	discovery_latency 	5328
scalar Network500.node330 	number_of_desired_resources 	20
scalar Network500.node330 	query_homogenity_rate 	33.333333333333
scalar Network500.node330 	qrecord_time 	17728
scalar Network500.node330 	discovery_resolution_rate 	0
scalar Network500.node230 	rate_of_requesters 	1
scalar Network500.node230 	number_of_resources 	27500
scalar Network500.node230 	time_period 	3
scalar Network500.node230 	number_of_messages 	2
scalar Network500.node230 	discovery_latency 	5280
scalar Network500.node230 	number_of_desired_resources 	20
scalar Network500.node230 	query_homogenity_rate 	33.333333333333
scalar Network500.node230 	qrecord_time 	17844
scalar Network500.node230 	discovery_resolution_rate 	0
scalar Network500.node380 	rate_of_requesters 	1
scalar Network500.node380 	number_of_resources 	27500
scalar Network500.node380 	time_period 	3
scalar Network500.node380 	number_of_messages 	2
scalar Network500.node380 	discovery_latency 	5256
scalar Network500.node380 	number_of_desired_resources 	20
scalar Network500.node380 	query_homogenity_rate 	33.333333333333
scalar Network500.node380 	qrecord_time 	17905
scalar Network500.node380 	discovery_resolution_rate 	0
scalar Network500.node250 	rate_of_requesters 	1
scalar Network500.node250 	number_of_resources 	27500
scalar Network500.node250 	time_period 	5
scalar Network500.node250 	number_of_messages 	40
scalar Network500.node250 	discovery_latency 	516
scalar Network500.node250 	number_of_desired_resources 	20
scalar Network500.node250 	query_homogenity_rate 	33.333333333333
scalar Network500.node250 	qrecord_time 	18110
scalar Network500.node250 	discovery_resolution_rate 	100
scalar Network500.node0 	rate_of_requesters 	1
scalar Network500.node0 	number_of_resources 	27500
scalar Network500.node0 	time_period 	4
scalar Network500.node0 	number_of_messages 	55
scalar Network500.node0 	discovery_latency 	576
scalar Network500.node0 	number_of_desired_resources 	20
scalar Network500.node0 	query_homogenity_rate 	33.333333333333
scalar Network500.node0 	qrecord_time 	18185
scalar Network500.node0 	discovery_resolution_rate 	100
scalar Network500.node410 	rate_of_requesters 	1
scalar Network500.node410 	number_of_resources 	27500
scalar Network500.node410 	time_period 	3
scalar Network500.node410 	number_of_messages 	276
scalar Network500.node410 	discovery_latency 	5040
scalar Network500.node410 	number_of_desired_resources 	20
scalar Network500.node410 	query_homogenity_rate 	33.333333333333
scalar Network500.node410 	qrecord_time 	18197
scalar Network500.node410 	discovery_resolution_rate 	33.333333333333
scalar Network500.node60 	rate_of_requesters 	1
scalar Network500.node60 	number_of_resources 	27500
scalar Network500.node60 	time_period 	3
scalar Network500.node60 	number_of_messages 	2
scalar Network500.node60 	discovery_latency 	5184
scalar Network500.node60 	number_of_desired_resources 	20
scalar Network500.node60 	query_homogenity_rate 	33.333333333333
scalar Network500.node60 	qrecord_time 	18207
scalar Network500.node60 	discovery_resolution_rate 	0
scalar Network500.node170 	rate_of_requesters 	1
scalar Network500.node170 	number_of_resources 	27500
scalar Network500.node170 	time_period 	3
scalar Network500.node170 	number_of_messages 	2
scalar Network500.node170 	discovery_latency 	5280
scalar Network500.node170 	number_of_desired_resources 	20
scalar Network500.node170 	query_homogenity_rate 	33.333333333333
scalar Network500.node170 	qrecord_time 	18245
scalar Network500.node170 	discovery_resolution_rate 	0
scalar Network500.node440 	rate_of_requesters 	1
scalar Network500.node440 	number_of_resources 	27500
scalar Network500.node440 	time_period 	4
scalar Network500.node440 	number_of_messages 	89
scalar Network500.node440 	discovery_latency 	792
scalar Network500.node440 	number_of_desired_resources 	20
scalar Network500.node440 	query_homogenity_rate 	33.333333333333
scalar Network500.node440 	qrecord_time 	18256
scalar Network500.node440 	discovery_resolution_rate 	100
scalar Network500.node300 	rate_of_requesters 	1
scalar Network500.node300 	number_of_resources 	27500
scalar Network500.node300 	time_period 	3
scalar Network500.node300 	number_of_messages 	2
scalar Network500.node300 	discovery_latency 	5364
scalar Network500.node300 	number_of_desired_resources 	20
scalar Network500.node300 	query_homogenity_rate 	33.333333333333
scalar Network500.node300 	qrecord_time 	18268
scalar Network500.node300 	discovery_resolution_rate 	0
scalar Network500.node480 	rate_of_requesters 	1
scalar Network500.node480 	number_of_resources 	27500
scalar Network500.node480 	time_period 	3
scalar Network500.node480 	number_of_messages 	2
scalar Network500.node480 	discovery_latency 	5280
scalar Network500.node480 	number_of_desired_resources 	20
scalar Network500.node480 	query_homogenity_rate 	33.333333333333
scalar Network500.node480 	qrecord_time 	18286.999999999
scalar Network500.node480 	discovery_resolution_rate 	0
scalar Network500.node230 	rate_of_requesters 	1
scalar Network500.node230 	number_of_resources 	27500
scalar Network500.node230 	time_period 	4
scalar Network500.node230 	number_of_messages 	23
scalar Network500.node230 	discovery_latency 	180
scalar Network500.node230 	number_of_desired_resources 	20
scalar Network500.node230 	query_homogenity_rate 	33.333333333333
scalar Network500.node230 	qrecord_time 	18296
scalar Network500.node230 	discovery_resolution_rate 	100
scalar Network500.node390 	rate_of_requesters 	1
scalar Network500.node390 	number_of_resources 	27500
scalar Network500.node390 	time_period 	3
scalar Network500.node390 	number_of_messages 	2
scalar Network500.node390 	discovery_latency 	5184
scalar Network500.node390 	number_of_desired_resources 	20
scalar Network500.node390 	query_homogenity_rate 	33.333333333333
scalar Network500.node390 	qrecord_time 	18367
scalar Network500.node390 	discovery_resolution_rate 	0
scalar Network500.node270 	rate_of_requesters 	1
scalar Network500.node270 	number_of_resources 	27500
scalar Network500.node270 	time_period 	3
scalar Network500.node270 	number_of_messages 	2
scalar Network500.node270 	discovery_latency 	5172
scalar Network500.node270 	number_of_desired_resources 	20
scalar Network500.node270 	query_homogenity_rate 	33.333333333333
scalar Network500.node270 	qrecord_time 	18385
scalar Network500.node270 	discovery_resolution_rate 	0
scalar Network500.node380 	rate_of_requesters 	1
scalar Network500.node380 	number_of_resources 	27500
scalar Network500.node380 	time_period 	4
scalar Network500.node380 	number_of_messages 	21
scalar Network500.node380 	discovery_latency 	192
scalar Network500.node380 	number_of_desired_resources 	20
scalar Network500.node380 	query_homogenity_rate 	33.333333333333
scalar Network500.node380 	qrecord_time 	18415
scalar Network500.node380 	discovery_resolution_rate 	100
scalar Network500.node340 	rate_of_requesters 	1
scalar Network500.node340 	number_of_resources 	27500
scalar Network500.node340 	time_period 	3
scalar Network500.node340 	number_of_messages 	2
scalar Network500.node340 	discovery_latency 	5400
scalar Network500.node340 	number_of_desired_resources 	20
scalar Network500.node340 	query_homogenity_rate 	33.333333333333
scalar Network500.node340 	qrecord_time 	18416
scalar Network500.node340 	discovery_resolution_rate 	0
scalar Network500.node60 	rate_of_requesters 	1
scalar Network500.node60 	number_of_resources 	27500
scalar Network500.node60 	time_period 	4
scalar Network500.node60 	number_of_messages 	58
scalar Network500.node60 	discovery_latency 	378
scalar Network500.node60 	number_of_desired_resources 	20
scalar Network500.node60 	query_homogenity_rate 	33.333333333333
scalar Network500.node60 	qrecord_time 	18452
scalar Network500.node60 	discovery_resolution_rate 	100
scalar Network500.node410 	rate_of_requesters 	1
scalar Network500.node410 	number_of_resources 	27500
scalar Network500.node410 	time_period 	4
scalar Network500.node410 	number_of_messages 	54
scalar Network500.node410 	discovery_latency 	570
scalar Network500.node410 	number_of_desired_resources 	20
scalar Network500.node410 	query_homogenity_rate 	33.333333333333
scalar Network500.node410 	qrecord_time 	18474
scalar Network500.node410 	discovery_resolution_rate 	100
scalar Network500.node180 	rate_of_requesters 	1
scalar Network500.node180 	number_of_resources 	27500
scalar Network500.node180 	time_period 	4
scalar Network500.node180 	number_of_messages 	89
scalar Network500.node180 	discovery_latency 	702
scalar Network500.node180 	number_of_desired_resources 	20
scalar Network500.node180 	query_homogenity_rate 	33.333333333333
scalar Network500.node180 	qrecord_time 	18478
scalar Network500.node180 	discovery_resolution_rate 	100
scalar Network500.node150 	rate_of_requesters 	1
scalar Network500.node150 	number_of_resources 	27500
scalar Network500.node150 	time_period 	4
scalar Network500.node150 	number_of_messages 	66
scalar Network500.node150 	discovery_latency 	372
scalar Network500.node150 	number_of_desired_resources 	20
scalar Network500.node150 	query_homogenity_rate 	33.333333333333
scalar Network500.node150 	qrecord_time 	18610
scalar Network500.node150 	discovery_resolution_rate 	100
scalar Network500.node370 	rate_of_requesters 	1
scalar Network500.node370 	number_of_resources 	27500
scalar Network500.node370 	time_period 	4
scalar Network500.node370 	number_of_messages 	256
scalar Network500.node370 	discovery_latency 	1896
scalar Network500.node370 	number_of_desired_resources 	20
scalar Network500.node370 	query_homogenity_rate 	33.333333333333
scalar Network500.node370 	qrecord_time 	18611
scalar Network500.node370 	discovery_resolution_rate 	100
scalar Network500.node240 	rate_of_requesters 	1
scalar Network500.node240 	number_of_resources 	27500
scalar Network500.node240 	time_period 	3
scalar Network500.node240 	number_of_messages 	0
scalar Network500.node240 	discovery_latency 	5196
scalar Network500.node240 	number_of_desired_resources 	20
scalar Network500.node240 	query_homogenity_rate 	33.333333333333
scalar Network500.node240 	qrecord_time 	18647
scalar Network500.node240 	discovery_resolution_rate 	0
scalar Network500.node480 	rate_of_requesters 	1
scalar Network500.node480 	number_of_resources 	27500
scalar Network500.node480 	time_period 	4
scalar Network500.node480 	number_of_messages 	111
scalar Network500.node480 	discovery_latency 	1074
scalar Network500.node480 	number_of_desired_resources 	20
scalar Network500.node480 	query_homogenity_rate 	33.333333333333
scalar Network500.node480 	qrecord_time 	18667.999999999
scalar Network500.node480 	discovery_resolution_rate 	100
scalar Network500.node120 	rate_of_requesters 	1
scalar Network500.node120 	number_of_resources 	27500
scalar Network500.node120 	time_period 	5
scalar Network500.node120 	number_of_messages 	114
scalar Network500.node120 	discovery_latency 	804
scalar Network500.node120 	number_of_desired_resources 	20
scalar Network500.node120 	query_homogenity_rate 	33.333333333333
scalar Network500.node120 	qrecord_time 	18676
scalar Network500.node120 	discovery_resolution_rate 	100
scalar Network500.node470 	rate_of_requesters 	1
scalar Network500.node470 	number_of_resources 	27500
scalar Network500.node470 	time_period 	3
scalar Network500.node470 	number_of_messages 	2
scalar Network500.node470 	discovery_latency 	5328
scalar Network500.node470 	number_of_desired_resources 	20
scalar Network500.node470 	query_homogenity_rate 	33.333333333333
scalar Network500.node470 	qrecord_time 	18712
scalar Network500.node470 	discovery_resolution_rate 	0
scalar Network500.node40 	rate_of_requesters 	1
scalar Network500.node40 	number_of_resources 	27500
scalar Network500.node40 	time_period 	3
scalar Network500.node40 	number_of_messages 	2
scalar Network500.node40 	discovery_latency 	5256
scalar Network500.node40 	number_of_desired_resources 	20
scalar Network500.node40 	query_homogenity_rate 	33.333333333333
scalar Network500.node40 	qrecord_time 	18726
scalar Network500.node40 	discovery_resolution_rate 	0
scalar Network500.node320 	rate_of_requesters 	1
scalar Network500.node320 	number_of_resources 	27500
scalar Network500.node320 	time_period 	3
scalar Network500.node320 	number_of_messages 	2
scalar Network500.node320 	discovery_latency 	5244
scalar Network500.node320 	number_of_desired_resources 	20
scalar Network500.node320 	query_homogenity_rate 	33.333333333333
scalar Network500.node320 	qrecord_time 	18823
scalar Network500.node320 	discovery_resolution_rate 	0
scalar Network500.node430 	rate_of_requesters 	1
scalar Network500.node430 	number_of_resources 	27500
scalar Network500.node430 	time_period 	5
scalar Network500.node430 	number_of_messages 	75
scalar Network500.node430 	discovery_latency 	750
scalar Network500.node430 	number_of_desired_resources 	20
scalar Network500.node430 	query_homogenity_rate 	33.333333333333
scalar Network500.node430 	qrecord_time 	18841
scalar Network500.node430 	discovery_resolution_rate 	100
scalar Network500.node140 	rate_of_requesters 	1
scalar Network500.node140 	number_of_resources 	27500
scalar Network500.node140 	time_period 	5
scalar Network500.node140 	number_of_messages 	33
scalar Network500.node140 	discovery_latency 	300
scalar Network500.node140 	number_of_desired_resources 	20
scalar Network500.node140 	query_homogenity_rate 	33.333333333333
scalar Network500.node140 	qrecord_time 	19000
scalar Network500.node140 	discovery_resolution_rate 	100
scalar Network500.node310 	rate_of_requesters 	1
scalar Network500.node310 	number_of_resources 	27500
scalar Network500.node310 	time_period 	3
scalar Network500.node310 	number_of_messages 	433
scalar Network500.node310 	discovery_latency 	3258
scalar Network500.node310 	number_of_desired_resources 	20
scalar Network500.node310 	query_homogenity_rate 	33.333333333333
scalar Network500.node310 	qrecord_time 	19013
scalar Network500.node310 	discovery_resolution_rate 	100
scalar Network500.node460 	rate_of_requesters 	1
scalar Network500.node460 	number_of_resources 	27500
scalar Network500.node460 	time_period 	3
scalar Network500.node460 	number_of_messages 	0
scalar Network500.node460 	discovery_latency 	5208
scalar Network500.node460 	number_of_desired_resources 	20
scalar Network500.node460 	query_homogenity_rate 	33.333333333333
scalar Network500.node460 	qrecord_time 	19047
scalar Network500.node460 	discovery_resolution_rate 	0
scalar Network500.node430 	rate_of_requesters 	1
scalar Network500.node430 	number_of_resources 	27500
scalar Network500.node430 	time_period 	4
scalar Network500.node430 	number_of_messages 	2
scalar Network500.node430 	discovery_latency 	5184
scalar Network500.node430 	number_of_desired_resources 	20
scalar Network500.node430 	query_homogenity_rate 	33.333333333333
scalar Network500.node430 	qrecord_time 	19115
scalar Network500.node430 	discovery_resolution_rate 	0
scalar Network500.node300 	rate_of_requesters 	1
scalar Network500.node300 	number_of_resources 	27500
scalar Network500.node300 	time_period 	4
scalar Network500.node300 	number_of_messages 	72
scalar Network500.node300 	discovery_latency 	498
scalar Network500.node300 	number_of_desired_resources 	20
scalar Network500.node300 	query_homogenity_rate 	33.333333333333
scalar Network500.node300 	qrecord_time 	19125
scalar Network500.node300 	discovery_resolution_rate 	100
scalar Network500.node280 	rate_of_requesters 	1
scalar Network500.node280 	number_of_resources 	27500
scalar Network500.node280 	time_period 	5
scalar Network500.node280 	number_of_messages 	44
scalar Network500.node280 	discovery_latency 	300
scalar Network500.node280 	number_of_desired_resources 	20
scalar Network500.node280 	query_homogenity_rate 	33.333333333333
scalar Network500.node280 	qrecord_time 	19165
scalar Network500.node280 	discovery_resolution_rate 	100
scalar Network500.node190 	rate_of_requesters 	1
scalar Network500.node190 	number_of_resources 	27500
scalar Network500.node190 	time_period 	4
scalar Network500.node190 	number_of_messages 	351
scalar Network500.node190 	discovery_latency 	2646
scalar Network500.node190 	number_of_desired_resources 	20
scalar Network500.node190 	query_homogenity_rate 	33.333333333333
scalar Network500.node190 	qrecord_time 	19192
scalar Network500.node190 	discovery_resolution_rate 	100
scalar Network500.node20 	rate_of_requesters 	1
scalar Network500.node20 	number_of_resources 	27500
scalar Network500.node20 	time_period 	3
scalar Network500.node20 	number_of_messages 	2
scalar Network500.node20 	discovery_latency 	5412
scalar Network500.node20 	number_of_desired_resources 	20
scalar Network500.node20 	query_homogenity_rate 	33.333333333333
scalar Network500.node20 	qrecord_time 	19199
scalar Network500.node20 	discovery_resolution_rate 	0
scalar Network500.node270 	rate_of_requesters 	1
scalar Network500.node270 	number_of_resources 	27500
scalar Network500.node270 	time_period 	4
scalar Network500.node270 	number_of_messages 	40
scalar Network500.node270 	discovery_latency 	372
scalar Network500.node270 	number_of_desired_resources 	20
scalar Network500.node270 	query_homogenity_rate 	33.333333333333
scalar Network500.node270 	qrecord_time 	19219
scalar Network500.node270 	discovery_resolution_rate 	100
scalar Network500.node130 	rate_of_requesters 	1
scalar Network500.node130 	number_of_resources 	27500
scalar Network500.node130 	time_period 	4
scalar Network500.node130 	number_of_messages 	141
scalar Network500.node130 	discovery_latency 	1536
scalar Network500.node130 	number_of_desired_resources 	20
scalar Network500.node130 	query_homogenity_rate 	33.333333333333
scalar Network500.node130 	qrecord_time 	19262
scalar Network500.node130 	discovery_resolution_rate 	100
scalar Network500.node440 	rate_of_requesters 	1
scalar Network500.node440 	number_of_resources 	27500
scalar Network500.node440 	time_period 	3
scalar Network500.node440 	number_of_messages 	278
scalar Network500.node440 	discovery_latency 	5100
scalar Network500.node440 	number_of_desired_resources 	20
scalar Network500.node440 	query_homogenity_rate 	33.333333333333
scalar Network500.node440 	qrecord_time 	19292
scalar Network500.node440 	discovery_resolution_rate 	33.333333333333
scalar Network500.node190 	rate_of_requesters 	1
scalar Network500.node190 	number_of_resources 	27500
scalar Network500.node190 	time_period 	3
scalar Network500.node190 	number_of_messages 	2
scalar Network500.node190 	discovery_latency 	5340
scalar Network500.node190 	number_of_desired_resources 	20
scalar Network500.node190 	query_homogenity_rate 	33.333333333333
scalar Network500.node190 	qrecord_time 	19292
scalar Network500.node190 	discovery_resolution_rate 	0
scalar Network500.node320 	rate_of_requesters 	1
scalar Network500.node320 	number_of_resources 	27500
scalar Network500.node320 	time_period 	5
scalar Network500.node320 	number_of_messages 	52
scalar Network500.node320 	discovery_latency 	300
scalar Network500.node320 	number_of_desired_resources 	20
scalar Network500.node320 	query_homogenity_rate 	33.333333333333
scalar Network500.node320 	qrecord_time 	19308
scalar Network500.node320 	discovery_resolution_rate 	100
scalar Network500.node460 	rate_of_requesters 	1
scalar Network500.node460 	number_of_resources 	27500
scalar Network500.node460 	time_period 	4
scalar Network500.node460 	number_of_messages 	111
scalar Network500.node460 	discovery_latency 	1092
scalar Network500.node460 	number_of_desired_resources 	20
scalar Network500.node460 	query_homogenity_rate 	33.333333333333
scalar Network500.node460 	qrecord_time 	19325.999999999
scalar Network500.node460 	discovery_resolution_rate 	100
scalar Network500.node150 	rate_of_requesters 	1
scalar Network500.node150 	number_of_resources 	27500
scalar Network500.node150 	time_period 	3
scalar Network500.node150 	number_of_messages 	2
scalar Network500.node150 	discovery_latency 	5352
scalar Network500.node150 	number_of_desired_resources 	20
scalar Network500.node150 	query_homogenity_rate 	33.333333333333
scalar Network500.node150 	qrecord_time 	19353
scalar Network500.node150 	discovery_resolution_rate 	0
scalar Network500.node350 	rate_of_requesters 	1
scalar Network500.node350 	number_of_resources 	27500
scalar Network500.node350 	time_period 	5
scalar Network500.node350 	number_of_messages 	53
scalar Network500.node350 	discovery_latency 	420
scalar Network500.node350 	number_of_desired_resources 	20
scalar Network500.node350 	query_homogenity_rate 	33.333333333333
scalar Network500.node350 	qrecord_time 	19423
scalar Network500.node350 	discovery_resolution_rate 	100
scalar Network500.node260 	rate_of_requesters 	1
scalar Network500.node260 	number_of_resources 	27500
scalar Network500.node260 	time_period 	5
scalar Network500.node260 	number_of_messages 	83
scalar Network500.node260 	discovery_latency 	1080
scalar Network500.node260 	number_of_desired_resources 	20
scalar Network500.node260 	query_homogenity_rate 	33.333333333333
scalar Network500.node260 	qrecord_time 	19448.999999999
scalar Network500.node260 	discovery_resolution_rate 	100
scalar Network500.node10 	rate_of_requesters 	1
scalar Network500.node10 	number_of_resources 	27500
scalar Network500.node10 	time_period 	4
scalar Network500.node10 	number_of_messages 	49
[...]
scalar Network500.node90 	discovery_resolution_rate 	100
scalar Network500.node230 	rate_of_requesters 	1
scalar Network500.node230 	number_of_resources 	27500
scalar Network500.node230 	time_period 	100
scalar Network500.node230 	number_of_messages 	109
scalar Network500.node230 	discovery_latency 	1104
scalar Network500.node230 	number_of_desired_resources 	20
scalar Network500.node230 	query_homogenity_rate 	33.333333333333
scalar Network500.node230 	qrecord_time 	408344
scalar Network500.node230 	discovery_resolution_rate 	100
scalar Network500.node150 	rate_of_requesters 	1
scalar Network500.node150 	number_of_resources 	27500
scalar Network500.node150 	time_period 	99
scalar Network500.node150 	number_of_messages 	349
scalar Network500.node150 	discovery_latency 	4836
scalar Network500.node150 	number_of_desired_resources 	20
scalar Network500.node150 	query_homogenity_rate 	33.333333333333
scalar Network500.node150 	qrecord_time 	408380
scalar Network500.node150 	discovery_resolution_rate 	50
scalar Network500.node240 	rate_of_requesters 	1
scalar Network500.node240 	number_of_resources 	27500
scalar Network500.node240 	time_period 	100
scalar Network500.node240 	number_of_messages 	66
scalar Network500.node240 	discovery_latency 	408.00000000002
scalar Network500.node240 	number_of_desired_resources 	20
scalar Network500.node240 	query_homogenity_rate 	33.333333333333
scalar Network500.node240 	qrecord_time 	408548
scalar Network500.node240 	discovery_resolution_rate 	100
scalar Network500.node180 	rate_of_requesters 	1
scalar Network500.node180 	number_of_resources 	27500
scalar Network500.node180 	time_period 	100
scalar Network500.node180 	number_of_messages 	86
scalar Network500.node180 	discovery_latency 	4878
scalar Network500.node180 	number_of_desired_resources 	20
scalar Network500.node180 	query_homogenity_rate 	33.333333333333
scalar Network500.node180 	qrecord_time 	408709
scalar Network500.node180 	discovery_resolution_rate 	66.666666666667
scalar Network500.node90 	rate_of_requesters 	1
scalar Network500.node90 	number_of_resources 	27500
scalar Network500.node90 	time_period 	97
scalar Network500.node90 	number_of_messages 	460
scalar Network500.node90 	discovery_latency 	4776
scalar Network500.node90 	number_of_desired_resources 	20
scalar Network500.node90 	query_homogenity_rate 	33.333333333333
scalar Network500.node90 	qrecord_time 	408770.99999999
scalar Network500.node90 	discovery_resolution_rate 	83.333333333333
scalar Network500.node20 	rate_of_requesters 	1
scalar Network500.node20 	number_of_resources 	27500
scalar Network500.node20 	time_period 	95
scalar Network500.node20 	number_of_messages 	713
scalar Network500.node20 	discovery_latency 	4902
scalar Network500.node20 	number_of_desired_resources 	20
scalar Network500.node20 	query_homogenity_rate 	33.333333333333
scalar Network500.node20 	qrecord_time 	408797.99999999
scalar Network500.node20 	discovery_resolution_rate 	66.666666666667
scalar Network500.node400 	rate_of_requesters 	1
scalar Network500.node400 	number_of_resources 	27500
scalar Network500.node400 	time_period 	100
scalar Network500.node400 	number_of_messages 	150
scalar Network500.node400 	discovery_latency 	2184
scalar Network500.node400 	number_of_desired_resources 	20
scalar Network500.node400 	query_homogenity_rate 	33.333333333333
scalar Network500.node400 	qrecord_time 	408815
scalar Network500.node400 	discovery_resolution_rate 	100
scalar Network500.node380 	rate_of_requesters 	1
scalar Network500.node380 	number_of_resources 	27500
scalar Network500.node380 	time_period 	99
scalar Network500.node380 	number_of_messages 	103
scalar Network500.node380 	discovery_latency 	834
scalar Network500.node380 	number_of_desired_resources 	20
scalar Network500.node380 	query_homogenity_rate 	33.333333333333
scalar Network500.node380 	qrecord_time 	409224.99999999
scalar Network500.node380 	discovery_resolution_rate 	100
scalar Network500.node50 	rate_of_requesters 	1
scalar Network500.node50 	number_of_resources 	27500
scalar Network500.node50 	time_period 	100
scalar Network500.node50 	number_of_messages 	74
scalar Network500.node50 	discovery_latency 	642
scalar Network500.node50 	number_of_desired_resources 	20
scalar Network500.node50 	query_homogenity_rate 	33.333333333333
scalar Network500.node50 	qrecord_time 	409304
scalar Network500.node50 	discovery_resolution_rate 	100
scalar Network500.node460 	rate_of_requesters 	1
scalar Network500.node460 	number_of_resources 	27500
scalar Network500.node460 	time_period 	99
scalar Network500.node460 	number_of_messages 	501
scalar Network500.node460 	discovery_latency 	3942
scalar Network500.node460 	number_of_desired_resources 	20
scalar Network500.node460 	query_homogenity_rate 	33.333333333333
scalar Network500.node460 	qrecord_time 	409355.99999999
scalar Network500.node460 	discovery_resolution_rate 	100
scalar Network500.node70 	rate_of_requesters 	1
scalar Network500.node70 	number_of_resources 	27500
scalar Network500.node70 	time_period 	98
scalar Network500.node70 	number_of_messages 	108
scalar Network500.node70 	discovery_latency 	846
scalar Network500.node70 	number_of_desired_resources 	20
scalar Network500.node70 	query_homogenity_rate 	33.333333333333
scalar Network500.node70 	qrecord_time 	410217.99999999
scalar Network500.node70 	discovery_resolution_rate 	100
scalar Network500.node470 	rate_of_requesters 	1
scalar Network500.node470 	number_of_resources 	27500
scalar Network500.node470 	time_period 	97
scalar Network500.node470 	number_of_messages 	95
scalar Network500.node470 	discovery_latency 	726
scalar Network500.node470 	number_of_desired_resources 	20
scalar Network500.node470 	query_homogenity_rate 	33.333333333333
scalar Network500.node470 	qrecord_time 	410370.99999999
scalar Network500.node470 	discovery_resolution_rate 	100
scalar Network500.node480 	rate_of_requesters 	1
scalar Network500.node480 	number_of_resources 	27500
scalar Network500.node480 	time_period 	100
scalar Network500.node480 	number_of_messages 	27
scalar Network500.node480 	discovery_latency 	287.99999999995
scalar Network500.node480 	number_of_desired_resources 	20
scalar Network500.node480 	query_homogenity_rate 	33.333333333333
scalar Network500.node480 	qrecord_time 	410618.99999999
scalar Network500.node480 	discovery_resolution_rate 	100
scalar Network500.node30 	rate_of_requesters 	1
scalar Network500.node30 	number_of_resources 	27500
scalar Network500.node30 	time_period 	97
scalar Network500.node30 	number_of_messages 	166
scalar Network500.node30 	discovery_latency 	1956
scalar Network500.node30 	number_of_desired_resources 	20
scalar Network500.node30 	query_homogenity_rate 	33.333333333333
scalar Network500.node30 	qrecord_time 	410858
scalar Network500.node30 	discovery_resolution_rate 	100
scalar Network500.node380 	rate_of_requesters 	1
scalar Network500.node380 	number_of_resources 	27500
scalar Network500.node380 	time_period 	98
scalar Network500.node380 	number_of_messages 	517
scalar Network500.node380 	discovery_latency 	5292
scalar Network500.node380 	number_of_desired_resources 	20
scalar Network500.node380 	query_homogenity_rate 	33.333333333333
scalar Network500.node380 	qrecord_time 	410938.99999999
scalar Network500.node380 	discovery_resolution_rate 	83.333333333333
scalar Network500.node20 	rate_of_requesters 	1
scalar Network500.node20 	number_of_resources 	27500
scalar Network500.node20 	time_period 	96
scalar Network500.node20 	number_of_messages 	237
scalar Network500.node20 	discovery_latency 	2640
scalar Network500.node20 	number_of_desired_resources 	20
scalar Network500.node20 	query_homogenity_rate 	33.333333333333
scalar Network500.node20 	qrecord_time 	411200.99999999
scalar Network500.node20 	discovery_resolution_rate 	100
scalar Network500.node10 	rate_of_requesters 	1
scalar Network500.node10 	number_of_resources 	27500
scalar Network500.node10 	time_period 	94
scalar Network500.node10 	number_of_messages 	68
scalar Network500.node10 	discovery_latency 	528.00000000002
scalar Network500.node10 	number_of_desired_resources 	20
scalar Network500.node10 	query_homogenity_rate 	33.333333333333
scalar Network500.node10 	qrecord_time 	411444
scalar Network500.node10 	discovery_resolution_rate 	100
scalar Network500.node460 	rate_of_requesters 	1
scalar Network500.node460 	number_of_resources 	27500
scalar Network500.node460 	time_period 	100
scalar Network500.node460 	number_of_messages 	29
scalar Network500.node460 	discovery_latency 	336.00000000001
scalar Network500.node460 	number_of_desired_resources 	20
scalar Network500.node460 	query_homogenity_rate 	33.333333333333
scalar Network500.node460 	qrecord_time 	411730.99999999
scalar Network500.node460 	discovery_resolution_rate 	100
scalar Network500.node90 	rate_of_requesters 	1
scalar Network500.node90 	number_of_resources 	27500
scalar Network500.node90 	time_period 	99
scalar Network500.node90 	number_of_messages 	89
scalar Network500.node90 	discovery_latency 	642
scalar Network500.node90 	number_of_desired_resources 	20
scalar Network500.node90 	query_homogenity_rate 	33.333333333333
scalar Network500.node90 	qrecord_time 	411782.99999999
scalar Network500.node90 	discovery_resolution_rate 	100
scalar Network500.node380 	rate_of_requesters 	1
scalar Network500.node380 	number_of_resources 	27500
scalar Network500.node380 	time_period 	100
scalar Network500.node380 	number_of_messages 	27
scalar Network500.node380 	discovery_latency 	180.00000000001
scalar Network500.node380 	number_of_desired_resources 	20
scalar Network500.node380 	query_homogenity_rate 	33.333333333333
scalar Network500.node380 	qrecord_time 	412364.99999999
scalar Network500.node380 	discovery_resolution_rate 	100
scalar Network500.node150 	rate_of_requesters 	1
scalar Network500.node150 	number_of_resources 	27500
scalar Network500.node150 	time_period 	100
scalar Network500.node150 	number_of_messages 	362
scalar Network500.node150 	discovery_latency 	4962
scalar Network500.node150 	number_of_desired_resources 	20
scalar Network500.node150 	query_homogenity_rate 	33.333333333333
scalar Network500.node150 	qrecord_time 	412375
scalar Network500.node150 	discovery_resolution_rate 	83.333333333333
scalar Network500.node310 	rate_of_requesters 	1
scalar Network500.node310 	number_of_resources 	27500
scalar Network500.node310 	time_period 	100
scalar Network500.node310 	number_of_messages 	107
scalar Network500.node310 	discovery_latency 	1008
scalar Network500.node310 	number_of_desired_resources 	20
scalar Network500.node310 	query_homogenity_rate 	33.333333333333
scalar Network500.node310 	qrecord_time 	412603
scalar Network500.node310 	discovery_resolution_rate 	100
scalar Network500.node70 	rate_of_requesters 	1
scalar Network500.node70 	number_of_resources 	27500
scalar Network500.node70 	time_period 	99
scalar Network500.node70 	number_of_messages 	67
scalar Network500.node70 	discovery_latency 	588.00000000002
scalar Network500.node70 	number_of_desired_resources 	20
scalar Network500.node70 	query_homogenity_rate 	33.333333333333
scalar Network500.node70 	qrecord_time 	412863.99999999
scalar Network500.node70 	discovery_resolution_rate 	100
scalar Network500.node30 	rate_of_requesters 	1
scalar Network500.node30 	number_of_resources 	27500
scalar Network500.node30 	time_period 	98
scalar Network500.node30 	number_of_messages 	30
scalar Network500.node30 	discovery_latency 	227.99999999995
scalar Network500.node30 	number_of_desired_resources 	20
scalar Network500.node30 	query_homogenity_rate 	33.333333333333
scalar Network500.node30 	qrecord_time 	413733
scalar Network500.node30 	discovery_resolution_rate 	100
scalar Network500.node20 	rate_of_requesters 	1
scalar Network500.node20 	number_of_resources 	27500
scalar Network500.node20 	time_period 	97
scalar Network500.node20 	number_of_messages 	55
scalar Network500.node20 	discovery_latency 	516.00000000002
scalar Network500.node20 	number_of_desired_resources 	20
scalar Network500.node20 	query_homogenity_rate 	33.333333333333
scalar Network500.node20 	qrecord_time 	414508.99999999
scalar Network500.node20 	discovery_resolution_rate 	100
scalar Network500.node470 	rate_of_requesters 	1
scalar Network500.node470 	number_of_resources 	27500
scalar Network500.node470 	time_period 	98
scalar Network500.node470 	number_of_messages 	64
scalar Network500.node470 	discovery_latency 	539.99999999996
scalar Network500.node470 	number_of_desired_resources 	20
scalar Network500.node470 	query_homogenity_rate 	33.333333333333
scalar Network500.node470 	qrecord_time 	414598.99999999
scalar Network500.node470 	discovery_resolution_rate 	100
scalar Network500.node10 	rate_of_requesters 	1
scalar Network500.node10 	number_of_resources 	27500
scalar Network500.node10 	time_period 	95
scalar Network500.node10 	number_of_messages 	29
scalar Network500.node10 	discovery_latency 	144.00000000001
scalar Network500.node10 	number_of_desired_resources 	20
scalar Network500.node10 	query_homogenity_rate 	33.333333333333
scalar Network500.node10 	qrecord_time 	416060
scalar Network500.node10 	discovery_resolution_rate 	100
scalar Network500.node90 	rate_of_requesters 	1
scalar Network500.node90 	number_of_resources 	27500
scalar Network500.node90 	time_period 	100
scalar Network500.node90 	number_of_messages 	73
scalar Network500.node90 	discovery_latency 	774
scalar Network500.node90 	number_of_desired_resources 	20
scalar Network500.node90 	query_homogenity_rate 	33.333333333333
scalar Network500.node90 	qrecord_time 	417103.99999999
scalar Network500.node90 	discovery_resolution_rate 	100
scalar Network500.node20 	rate_of_requesters 	1
scalar Network500.node20 	number_of_resources 	27500
scalar Network500.node20 	time_period 	98
scalar Network500.node20 	number_of_messages 	75
scalar Network500.node20 	discovery_latency 	774
scalar Network500.node20 	number_of_desired_resources 	20
scalar Network500.node20 	query_homogenity_rate 	33.333333333333
scalar Network500.node20 	qrecord_time 	417200.99999999
scalar Network500.node20 	discovery_resolution_rate 	100
scalar Network500.node70 	rate_of_requesters 	1
scalar Network500.node70 	number_of_resources 	27500
scalar Network500.node70 	time_period 	100
scalar Network500.node70 	number_of_messages 	31
scalar Network500.node70 	discovery_latency 	300.00000000001
scalar Network500.node70 	number_of_desired_resources 	20
scalar Network500.node70 	query_homogenity_rate 	33.333333333333
scalar Network500.node70 	qrecord_time 	417910.99999999
scalar Network500.node70 	discovery_resolution_rate 	100
scalar Network500.node470 	rate_of_requesters 	1
scalar Network500.node470 	number_of_resources 	27500
scalar Network500.node470 	time_period 	99
scalar Network500.node470 	number_of_messages 	29
scalar Network500.node470 	discovery_latency 	167.99999999995
scalar Network500.node470 	number_of_desired_resources 	20
scalar Network500.node470 	query_homogenity_rate 	33.333333333333
scalar Network500.node470 	qrecord_time 	418694.99999999
scalar Network500.node470 	discovery_resolution_rate 	100
scalar Network500.node30 	rate_of_requesters 	1
scalar Network500.node30 	number_of_resources 	27500
scalar Network500.node30 	time_period 	99
scalar Network500.node30 	number_of_messages 	24
scalar Network500.node30 	discovery_latency 	227.99999999995
scalar Network500.node30 	number_of_desired_resources 	20
scalar Network500.node30 	query_homogenity_rate 	33.333333333333
scalar Network500.node30 	qrecord_time 	419661
scalar Network500.node30 	discovery_resolution_rate 	100
scalar Network500.node10 	rate_of_requesters 	1
scalar Network500.node10 	number_of_resources 	27500
scalar Network500.node10 	time_period 	96
scalar Network500.node10 	number_of_messages 	29
scalar Network500.node10 	discovery_latency 	144.00000000001
scalar Network500.node10 	number_of_desired_resources 	20
scalar Network500.node10 	query_homogenity_rate 	33.333333333333
scalar Network500.node10 	qrecord_time 	420313
scalar Network500.node10 	discovery_resolution_rate 	100
scalar Network500.node20 	rate_of_requesters 	1
scalar Network500.node20 	number_of_resources 	27500
scalar Network500.node20 	time_period 	99
scalar Network500.node20 	number_of_messages 	29
scalar Network500.node20 	discovery_latency 	156.00000000001
scalar Network500.node20 	number_of_desired_resources 	20
scalar Network500.node20 	query_homogenity_rate 	33.333333333333
scalar Network500.node20 	qrecord_time 	421234.99999999
scalar Network500.node20 	discovery_resolution_rate 	100
scalar Network500.node470 	rate_of_requesters 	1
scalar Network500.node470 	number_of_resources 	27500
scalar Network500.node470 	time_period 	100
scalar Network500.node470 	number_of_messages 	26
scalar Network500.node470 	discovery_latency 	168.00000000001
scalar Network500.node470 	number_of_desired_resources 	20
scalar Network500.node470 	query_homogenity_rate 	33.333333333333
scalar Network500.node470 	qrecord_time 	421460.99999999
scalar Network500.node470 	discovery_resolution_rate 	100
scalar Network500.node20 	rate_of_requesters 	1
scalar Network500.node20 	number_of_resources 	27500
scalar Network500.node20 	time_period 	100
scalar Network500.node20 	number_of_messages 	36
scalar Network500.node20 	discovery_latency 	287.99999999995
scalar Network500.node20 	number_of_desired_resources 	20
scalar Network500.node20 	query_homogenity_rate 	33.333333333333
scalar Network500.node20 	qrecord_time 	423939.99999999
scalar Network500.node20 	discovery_resolution_rate 	100
scalar Network500.node30 	rate_of_requesters 	1
scalar Network500.node30 	number_of_resources 	27500
scalar Network500.node30 	time_period 	100
scalar Network500.node30 	number_of_messages 	27
scalar Network500.node30 	discovery_latency 	216.00000000001
scalar Network500.node30 	number_of_desired_resources 	20
scalar Network500.node30 	query_homogenity_rate 	33.333333333333
scalar Network500.node30 	qrecord_time 	424522
scalar Network500.node30 	discovery_resolution_rate 	100
scalar Network500.node10 	rate_of_requesters 	1
scalar Network500.node10 	number_of_resources 	27500
scalar Network500.node10 	time_period 	97
scalar Network500.node10 	number_of_messages 	34
scalar Network500.node10 	discovery_latency 	276.00000000001
scalar Network500.node10 	number_of_desired_resources 	20
scalar Network500.node10 	query_homogenity_rate 	33.333333333333
scalar Network500.node10 	qrecord_time 	425305
scalar Network500.node10 	discovery_resolution_rate 	100
scalar Network500.node10 	rate_of_requesters 	1
scalar Network500.node10 	number_of_resources 	27500
scalar Network500.node10 	time_period 	98
scalar Network500.node10 	number_of_messages 	28
scalar Network500.node10 	discovery_latency 	144.00000000001
scalar Network500.node10 	number_of_desired_resources 	20
scalar Network500.node10 	query_homogenity_rate 	33.333333333333
scalar Network500.node10 	qrecord_time 	428401
scalar Network500.node10 	discovery_resolution_rate 	100
scalar Network500.node10 	rate_of_requesters 	1
scalar Network500.node10 	number_of_resources 	27500
scalar Network500.node10 	time_period 	99
scalar Network500.node10 	number_of_messages 	27
scalar Network500.node10 	discovery_latency 	132.00000000001
scalar Network500.node10 	number_of_desired_resources 	20
scalar Network500.node10 	query_homogenity_rate 	33.333333333333
scalar Network500.node10 	qrecord_time 	433490
scalar Network500.node10 	discovery_resolution_rate 	100
scalar Network500.node10 	rate_of_requesters 	1
scalar Network500.node10 	number_of_resources 	27500
scalar Network500.node10 	time_period 	100
scalar Network500.node10 	number_of_messages 	27
scalar Network500.node10 	discovery_latency 	144.00000000001
scalar Network500.node10 	number_of_desired_resources 	20
scalar Network500.node10 	query_homogenity_rate 	33.333333333333
scalar Network500.node10 	qrecord_time 	436173
scalar Network500.node10 	discovery_resolution_rate 	100
