version 2
run net600-1-20150624-23:25:14-16653
attr as 1
attr configname net600
attr datetime 20150624-23:25:14
attr dnor 20
attr experiment net600
attr inifile omnetpp.ini
attr iterationvars "$rhdrq=3, $dnor=20, $as=1"
attr iterationvars2 "$rhdrq=3, $dnor=20, $as=1, $repetition=1"
attr measurement "$rhdrq=3, $dnor=20, $as=1"
attr network Network600
attr processid 16653
attr repetition 1
attr replication #1
attr resultdir results
attr rhdrq 3
attr runnumber 1
attr seedset 1

scalar . 	as 	1
scalar . 	dnor 	20
scalar . 	rhdrq 	3
scalar Network600.node320 	rate_of_requesters 	1
scalar Network600.node320 	number_of_resources 	33000
scalar Network600.node320 	time_period 	1
scalar Network600.node320 	number_of_messages 	32
scalar Network600.node320 	discovery_latency 	204
scalar Network600.node320 	number_of_desired_resources 	20
scalar Network600.node320 	query_homogenity_rate 	33.333333333333
scalar Network600.node320 	qrecord_time 	4846
scalar Network600.node320 	discovery_resolution_rate 	100
scalar Network600.node290 	rate_of_requesters 	1
scalar Network600.node290 	number_of_resources 	33000
scalar Network600.node290 	time_period 	1
scalar Network600.node290 	number_of_messages 	26
scalar Network600.node290 	discovery_latency 	312
scalar Network600.node290 	number_of_desired_resources 	20
scalar Network600.node290 	query_homogenity_rate 	33.333333333333
scalar Network600.node290 	qrecord_time 	5062
scalar Network600.node290 	discovery_resolution_rate 	100
scalar Network600.node550 	rate_of_requesters 	1
scalar Network600.node550 	number_of_resources 	33000
scalar Network600.node550 	time_period 	1
scalar Network600.node550 	number_of_messages 	37
scalar Network600.node550 	discovery_latency 	456
scalar Network600.node550 	number_of_desired_resources 	20
scalar Network600.node550 	query_homogenity_rate 	33.333333333333
scalar Network600.node550 	qrecord_time 	5176
scalar Network600.node550 	discovery_resolution_rate 	100
scalar Network600.node350 	rate_of_requesters 	1
scalar Network600.node350 	number_of_resources 	33000
scalar Network600.node350 	time_period 	1
scalar Network600.node350 	number_of_messages 	109
scalar Network600.node350 	discovery_latency 	2274
scalar Network600.node350 	number_of_desired_resources 	20
scalar Network600.node350 	query_homogenity_rate 	33.333333333333
scalar Network600.node350 	qrecord_time 	7018
scalar Network600.node350 	discovery_resolution_rate 	100
scalar Network600.node560 	rate_of_requesters 	1
scalar Network600.node560 	number_of_resources 	33000
scalar Network600.node560 	time_period 	1
scalar Network600.node560 	number_of_messages 	11
scalar Network600.node560 	discovery_latency 	3288
scalar Network600.node560 	number_of_desired_resources 	20
scalar Network600.node560 	query_homogenity_rate 	33.333333333333
scalar Network600.node560 	qrecord_time 	8038
scalar Network600.node560 	discovery_resolution_rate 	66.666666666667
scalar Network600.node570 	rate_of_requesters 	1
scalar Network600.node570 	number_of_resources 	33000
scalar Network600.node570 	time_period 	1
scalar Network600.node570 	number_of_messages 	27
scalar Network600.node570 	discovery_latency 	3360
scalar Network600.node570 	number_of_desired_resources 	20
scalar Network600.node570 	query_homogenity_rate 	33.333333333333
scalar Network600.node570 	qrecord_time 	8098
scalar Network600.node570 	discovery_resolution_rate 	66.666666666667
scalar Network600.node530 	rate_of_requesters 	1
scalar Network600.node530 	number_of_resources 	33000
scalar Network600.node530 	time_period 	1
scalar Network600.node530 	number_of_messages 	13
scalar Network600.node530 	discovery_latency 	3420
scalar Network600.node530 	number_of_desired_resources 	20
scalar Network600.node530 	query_homogenity_rate 	33.333333333333
scalar Network600.node530 	qrecord_time 	8110
scalar Network600.node530 	discovery_resolution_rate 	66.666666666667
scalar Network600.node20 	rate_of_requesters 	1
scalar Network600.node20 	number_of_resources 	33000
scalar Network600.node20 	time_period 	1
scalar Network600.node20 	number_of_messages 	21
scalar Network600.node20 	discovery_latency 	3396
scalar Network600.node20 	number_of_desired_resources 	20
scalar Network600.node20 	query_homogenity_rate 	33.333333333333
scalar Network600.node20 	qrecord_time 	8128
scalar Network600.node20 	discovery_resolution_rate 	66.666666666667
scalar Network600.node80 	rate_of_requesters 	1
scalar Network600.node80 	number_of_resources 	33000
scalar Network600.node80 	time_period 	1
scalar Network600.node80 	number_of_messages 	11
scalar Network600.node80 	discovery_latency 	3456
scalar Network600.node80 	number_of_desired_resources 	20
scalar Network600.node80 	query_homogenity_rate 	33.333333333333
scalar Network600.node80 	qrecord_time 	8146
scalar Network600.node80 	discovery_resolution_rate 	66.666666666667
scalar Network600.node170 	rate_of_requesters 	1
scalar Network600.node170 	number_of_resources 	33000
scalar Network600.node170 	time_period 	1
scalar Network600.node170 	number_of_messages 	14
scalar Network600.node170 	discovery_latency 	3396
scalar Network600.node170 	number_of_desired_resources 	20
scalar Network600.node170 	query_homogenity_rate 	33.333333333333
scalar Network600.node170 	qrecord_time 	8146
scalar Network600.node170 	discovery_resolution_rate 	66.666666666667
scalar Network600.node160 	rate_of_requesters 	1
scalar Network600.node160 	number_of_resources 	33000
scalar Network600.node160 	time_period 	1
scalar Network600.node160 	number_of_messages 	28
scalar Network600.node160 	discovery_latency 	3360
scalar Network600.node160 	number_of_desired_resources 	20
scalar Network600.node160 	query_homogenity_rate 	33.333333333333
scalar Network600.node160 	qrecord_time 	8152
scalar Network600.node160 	discovery_resolution_rate 	66.666666666667
scalar Network600.node110 	rate_of_requesters 	1
scalar Network600.node110 	number_of_resources 	33000
scalar Network600.node110 	time_period 	1
scalar Network600.node110 	number_of_messages 	9
scalar Network600.node110 	discovery_latency 	3444
scalar Network600.node110 	number_of_desired_resources 	20
scalar Network600.node110 	query_homogenity_rate 	33.333333333333
scalar Network600.node110 	qrecord_time 	8164
scalar Network600.node110 	discovery_resolution_rate 	66.666666666667
scalar Network600.node240 	rate_of_requesters 	1
scalar Network600.node240 	number_of_resources 	33000
scalar Network600.node240 	time_period 	1
scalar Network600.node240 	number_of_messages 	55
scalar Network600.node240 	discovery_latency 	3444
scalar Network600.node240 	number_of_desired_resources 	20
scalar Network600.node240 	query_homogenity_rate 	33.333333333333
scalar Network600.node240 	qrecord_time 	8182
scalar Network600.node240 	discovery_resolution_rate 	66.666666666667
scalar Network600.node150 	rate_of_requesters 	1
scalar Network600.node150 	number_of_resources 	33000
scalar Network600.node150 	time_period 	1
scalar Network600.node150 	number_of_messages 	32
scalar Network600.node150 	discovery_latency 	3492
scalar Network600.node150 	number_of_desired_resources 	20
scalar Network600.node150 	query_homogenity_rate 	33.333333333333
scalar Network600.node150 	qrecord_time 	8230
scalar Network600.node150 	discovery_resolution_rate 	66.666666666667
scalar Network600.node60 	rate_of_requesters 	1
scalar Network600.node60 	number_of_resources 	33000
scalar Network600.node60 	time_period 	1
scalar Network600.node60 	number_of_messages 	15
scalar Network600.node60 	discovery_latency 	3540
scalar Network600.node60 	number_of_desired_resources 	20
scalar Network600.node60 	query_homogenity_rate 	33.333333333333
scalar Network600.node60 	qrecord_time 	8290
scalar Network600.node60 	discovery_resolution_rate 	66.666666666667
scalar Network600.node450 	rate_of_requesters 	1
scalar Network600.node450 	number_of_resources 	33000
scalar Network600.node450 	time_period 	1
scalar Network600.node450 	number_of_messages 	27
scalar Network600.node450 	discovery_latency 	3576
scalar Network600.node450 	number_of_desired_resources 	20
scalar Network600.node450 	query_homogenity_rate 	33.333333333333
scalar Network600.node450 	qrecord_time 	8344
scalar Network600.node450 	discovery_resolution_rate 	66.666666666667
scalar Network600.node440 	rate_of_requesters 	1
scalar Network600.node440 	number_of_resources 	33000
scalar Network600.node440 	time_period 	1
scalar Network600.node440 	number_of_messages 	13
scalar Network600.node440 	discovery_latency 	3636
scalar Network600.node440 	number_of_desired_resources 	20
scalar Network600.node440 	query_homogenity_rate 	33.333333333333
scalar Network600.node440 	qrecord_time 	8386
scalar Network600.node440 	discovery_resolution_rate 	66.666666666667
scalar Network600.node30 	rate_of_requesters 	1
scalar Network600.node30 	number_of_resources 	33000
scalar Network600.node30 	time_period 	1
scalar Network600.node30 	number_of_messages 	158
scalar Network600.node30 	discovery_latency 	3786
scalar Network600.node30 	number_of_desired_resources 	20
scalar Network600.node30 	query_homogenity_rate 	33.333333333333
scalar Network600.node30 	qrecord_time 	8536
scalar Network600.node30 	discovery_resolution_rate 	50
scalar Network600.node10 	rate_of_requesters 	1
scalar Network600.node10 	number_of_resources 	33000
scalar Network600.node10 	time_period 	1
scalar Network600.node10 	number_of_messages 	5
scalar Network600.node10 	discovery_latency 	3828
scalar Network600.node10 	number_of_desired_resources 	20
scalar Network600.node10 	query_homogenity_rate 	33.333333333333
scalar Network600.node10 	qrecord_time 	8542
scalar Network600.node10 	discovery_resolution_rate 	33.333333333333
scalar Network600.node330 	rate_of_requesters 	1
scalar Network600.node330 	number_of_resources 	33000
scalar Network600.node330 	time_period 	1
scalar Network600.node330 	number_of_messages 	22
scalar Network600.node330 	discovery_latency 	3858
scalar Network600.node330 	number_of_desired_resources 	20
scalar Network600.node330 	query_homogenity_rate 	33.333333333333
scalar Network600.node330 	qrecord_time 	8566
scalar Network600.node330 	discovery_resolution_rate 	66.666666666667
scalar Network600.node540 	rate_of_requesters 	1
scalar Network600.node540 	number_of_resources 	33000
scalar Network600.node540 	time_period 	1
scalar Network600.node540 	number_of_messages 	5
scalar Network600.node540 	discovery_latency 	3900
scalar Network600.node540 	number_of_desired_resources 	20
scalar Network600.node540 	query_homogenity_rate 	33.333333333333
scalar Network600.node540 	qrecord_time 	8620
scalar Network600.node540 	discovery_resolution_rate 	33.333333333333
scalar Network600.node190 	rate_of_requesters 	1
scalar Network600.node190 	number_of_resources 	33000
scalar Network600.node190 	time_period 	1
scalar Network600.node190 	number_of_messages 	5
scalar Network600.node190 	discovery_latency 	3918
scalar Network600.node190 	number_of_desired_resources 	20
scalar Network600.node190 	query_homogenity_rate 	33.333333333333
scalar Network600.node190 	qrecord_time 	8626
scalar Network600.node190 	discovery_resolution_rate 	33.333333333333
scalar Network600.node370 	rate_of_requesters 	1
scalar Network600.node370 	number_of_resources 	33000
scalar Network600.node370 	time_period 	1
scalar Network600.node370 	number_of_messages 	5
scalar Network600.node370 	discovery_latency 	3888
scalar Network600.node370 	number_of_desired_resources 	20
scalar Network600.node370 	query_homogenity_rate 	33.333333333333
scalar Network600.node370 	qrecord_time 	8644
scalar Network600.node370 	discovery_resolution_rate 	33.333333333333
scalar Network600.node520 	rate_of_requesters 	1
scalar Network600.node520 	number_of_resources 	33000
scalar Network600.node520 	time_period 	1
scalar Network600.node520 	number_of_messages 	20
scalar Network600.node520 	discovery_latency 	3918
scalar Network600.node520 	number_of_desired_resources 	20
scalar Network600.node520 	query_homogenity_rate 	33.333333333333
scalar Network600.node520 	qrecord_time 	8650
scalar Network600.node520 	discovery_resolution_rate 	33.333333333333
scalar Network600.node510 	rate_of_requesters 	1
scalar Network600.node510 	number_of_resources 	33000
scalar Network600.node510 	time_period 	1
scalar Network600.node510 	number_of_messages 	11
scalar Network600.node510 	discovery_latency 	3918
scalar Network600.node510 	number_of_desired_resources 	20
scalar Network600.node510 	query_homogenity_rate 	33.333333333333
scalar Network600.node510 	qrecord_time 	8656
scalar Network600.node510 	discovery_resolution_rate 	33.333333333333
scalar Network600.node0 	rate_of_requesters 	1
scalar Network600.node0 	number_of_resources 	33000
scalar Network600.node0 	time_period 	1
scalar Network600.node0 	number_of_messages 	12
scalar Network600.node0 	discovery_latency 	3972
scalar Network600.node0 	number_of_desired_resources 	20
scalar Network600.node0 	query_homogenity_rate 	33.333333333333
scalar Network600.node0 	qrecord_time 	8662
scalar Network600.node0 	discovery_resolution_rate 	66.666666666667
scalar Network600.node590 	rate_of_requesters 	1
scalar Network600.node590 	number_of_resources 	33000
scalar Network600.node590 	time_period 	1
scalar Network600.node590 	number_of_messages 	9
scalar Network600.node590 	discovery_latency 	3918
scalar Network600.node590 	number_of_desired_resources 	20
scalar Network600.node590 	query_homogenity_rate 	33.333333333333
scalar Network600.node590 	qrecord_time 	8668
scalar Network600.node590 	discovery_resolution_rate 	33.333333333333
scalar Network600.node180 	rate_of_requesters 	1
scalar Network600.node180 	number_of_resources 	33000
scalar Network600.node180 	time_period 	1
scalar Network600.node180 	number_of_messages 	132
scalar Network600.node180 	discovery_latency 	3966
scalar Network600.node180 	number_of_desired_resources 	20
scalar Network600.node180 	query_homogenity_rate 	33.333333333333
scalar Network600.node180 	qrecord_time 	8674
scalar Network600.node180 	discovery_resolution_rate 	66.666666666667
scalar Network600.node100 	rate_of_requesters 	1
scalar Network600.node100 	number_of_resources 	33000
scalar Network600.node100 	time_period 	1
scalar Network600.node100 	number_of_messages 	24
scalar Network600.node100 	discovery_latency 	3966
scalar Network600.node100 	number_of_desired_resources 	20
scalar Network600.node100 	query_homogenity_rate 	33.333333333333
scalar Network600.node100 	qrecord_time 	8680
scalar Network600.node100 	discovery_resolution_rate 	66.666666666667
scalar Network600.node250 	rate_of_requesters 	1
scalar Network600.node250 	number_of_resources 	33000
scalar Network600.node250 	time_period 	1
scalar Network600.node250 	number_of_messages 	2
scalar Network600.node250 	discovery_latency 	3930
scalar Network600.node250 	number_of_desired_resources 	20
scalar Network600.node250 	query_homogenity_rate 	33.333333333333
scalar Network600.node250 	qrecord_time 	8686
scalar Network600.node250 	discovery_resolution_rate 	0
scalar Network600.node380 	rate_of_requesters 	1
scalar Network600.node380 	number_of_resources 	33000
scalar Network600.node380 	time_period 	1
scalar Network600.node380 	number_of_messages 	27
scalar Network600.node380 	discovery_latency 	3918
scalar Network600.node380 	number_of_desired_resources 	20
scalar Network600.node380 	query_homogenity_rate 	33.333333333333
scalar Network600.node380 	qrecord_time 	8692
scalar Network600.node380 	discovery_resolution_rate 	33.333333333333
scalar Network600.node490 	rate_of_requesters 	1
scalar Network600.node490 	number_of_resources 	33000
scalar Network600.node490 	time_period 	1
scalar Network600.node490 	number_of_messages 	42
scalar Network600.node490 	discovery_latency 	3990
scalar Network600.node490 	number_of_desired_resources 	20
scalar Network600.node490 	query_homogenity_rate 	33.333333333333
scalar Network600.node490 	qrecord_time 	8698
scalar Network600.node490 	discovery_resolution_rate 	33.333333333333
scalar Network600.node270 	rate_of_requesters 	1
scalar Network600.node270 	number_of_resources 	33000
scalar Network600.node270 	time_period 	1
scalar Network600.node270 	number_of_messages 	22
scalar Network600.node270 	discovery_latency 	3978
scalar Network600.node270 	number_of_desired_resources 	20
scalar Network600.node270 	query_homogenity_rate 	33.333333333333
scalar Network600.node270 	qrecord_time 	8698
scalar Network600.node270 	discovery_resolution_rate 	66.666666666667
scalar Network600.node460 	rate_of_requesters 	1
scalar Network600.node460 	number_of_resources 	33000
scalar Network600.node460 	time_period 	1
scalar Network600.node460 	number_of_messages 	12
scalar Network600.node460 	discovery_latency 	3936
scalar Network600.node460 	number_of_desired_resources 	20
scalar Network600.node460 	query_homogenity_rate 	33.333333333333
scalar Network600.node460 	qrecord_time 	8704
scalar Network600.node460 	discovery_resolution_rate 	33.333333333333
scalar Network600.node390 	rate_of_requesters 	1
scalar Network600.node390 	number_of_resources 	33000
scalar Network600.node390 	time_period 	1
scalar Network600.node390 	number_of_messages 	2
scalar Network600.node390 	discovery_latency 	3966
scalar Network600.node390 	number_of_desired_resources 	20
scalar Network600.node390 	query_homogenity_rate 	33.333333333333
scalar Network600.node390 	qrecord_time 	8704
scalar Network600.node390 	discovery_resolution_rate 	0
scalar Network600.node40 	rate_of_requesters 	1
scalar Network600.node40 	number_of_resources 	33000
scalar Network600.node40 	time_period 	1
scalar Network600.node40 	number_of_messages 	15
scalar Network600.node40 	discovery_latency 	4002
scalar Network600.node40 	number_of_desired_resources 	20
scalar Network600.node40 	query_homogenity_rate 	33.333333333333
scalar Network600.node40 	qrecord_time 	8710
scalar Network600.node40 	discovery_resolution_rate 	66.666666666667
scalar Network600.node500 	rate_of_requesters 	1
scalar Network600.node500 	number_of_resources 	33000
scalar Network600.node500 	time_period 	1
scalar Network600.node500 	number_of_messages 	6
scalar Network600.node500 	discovery_latency 	3978
scalar Network600.node500 	number_of_desired_resources 	20
scalar Network600.node500 	query_homogenity_rate 	33.333333333333
scalar Network600.node500 	qrecord_time 	8710
scalar Network600.node500 	discovery_resolution_rate 	33.333333333333
scalar Network600.node410 	rate_of_requesters 	1
scalar Network600.node410 	number_of_resources 	33000
scalar Network600.node410 	time_period 	1
scalar Network600.node410 	number_of_messages 	151
scalar Network600.node410 	discovery_latency 	3972
scalar Network600.node410 	number_of_desired_resources 	20
scalar Network600.node410 	query_homogenity_rate 	33.333333333333
scalar Network600.node410 	qrecord_time 	8728
scalar Network600.node410 	discovery_resolution_rate 	16.666666666667
scalar Network600.node310 	rate_of_requesters 	1
scalar Network600.node310 	number_of_resources 	33000
scalar Network600.node310 	time_period 	1
scalar Network600.node310 	number_of_messages 	21
scalar Network600.node310 	discovery_latency 	4014
scalar Network600.node310 	number_of_desired_resources 	20
scalar Network600.node310 	query_homogenity_rate 	33.333333333333
scalar Network600.node310 	qrecord_time 	8740
scalar Network600.node310 	discovery_resolution_rate 	33.333333333333
scalar Network600.node50 	rate_of_requesters 	1
scalar Network600.node50 	number_of_resources 	33000
scalar Network600.node50 	time_period 	1
scalar Network600.node50 	number_of_messages 	198
scalar Network600.node50 	discovery_latency 	4038
scalar Network600.node50 	number_of_desired_resources 	20
scalar Network600.node50 	query_homogenity_rate 	33.333333333333
scalar Network600.node50 	qrecord_time 	8746
scalar Network600.node50 	discovery_resolution_rate 	83.333333333333
scalar Network600.node200 	rate_of_requesters 	1
scalar Network600.node200 	number_of_resources 	33000
scalar Network600.node200 	time_period 	1
scalar Network600.node200 	number_of_messages 	8
scalar Network600.node200 	discovery_latency 	3996
scalar Network600.node200 	number_of_desired_resources 	20
scalar Network600.node200 	query_homogenity_rate 	33.333333333333
scalar Network600.node200 	qrecord_time 	8752
scalar Network600.node200 	discovery_resolution_rate 	33.333333333333
scalar Network600.node260 	rate_of_requesters 	1
scalar Network600.node260 	number_of_resources 	33000
scalar Network600.node260 	time_period 	1
scalar Network600.node260 	number_of_messages 	111
scalar Network600.node260 	discovery_latency 	3996
scalar Network600.node260 	number_of_desired_resources 	20
scalar Network600.node260 	query_homogenity_rate 	33.333333333333
scalar Network600.node260 	qrecord_time 	8752
scalar Network600.node260 	discovery_resolution_rate 	33.333333333333
scalar Network600.node420 	rate_of_requesters 	1
scalar Network600.node420 	number_of_resources 	33000
scalar Network600.node420 	time_period 	1
scalar Network600.node420 	number_of_messages 	36
scalar Network600.node420 	discovery_latency 	4068
scalar Network600.node420 	number_of_desired_resources 	20
scalar Network600.node420 	query_homogenity_rate 	33.333333333333
scalar Network600.node420 	qrecord_time 	8758
scalar Network600.node420 	discovery_resolution_rate 	33.333333333333
scalar Network600.node360 	rate_of_requesters 	1
scalar Network600.node360 	number_of_resources 	33000
scalar Network600.node360 	time_period 	1
scalar Network600.node360 	number_of_messages 	5
scalar Network600.node360 	discovery_latency 	4026
scalar Network600.node360 	number_of_desired_resources 	20
scalar Network600.node360 	query_homogenity_rate 	33.333333333333
scalar Network600.node360 	qrecord_time 	8758
scalar Network600.node360 	discovery_resolution_rate 	33.333333333333
scalar Network600.node300 	rate_of_requesters 	1
scalar Network600.node300 	number_of_resources 	33000
scalar Network600.node300 	time_period 	1
scalar Network600.node300 	number_of_messages 	5
scalar Network600.node300 	discovery_latency 	4056
scalar Network600.node300 	number_of_desired_resources 	20
scalar Network600.node300 	query_homogenity_rate 	33.333333333333
scalar Network600.node300 	qrecord_time 	8764
scalar Network600.node300 	discovery_resolution_rate 	33.333333333333
scalar Network600.node210 	rate_of_requesters 	1
scalar Network600.node210 	number_of_resources 	33000
scalar Network600.node210 	time_period 	1
scalar Network600.node210 	number_of_messages 	8
scalar Network600.node210 	discovery_latency 	4008
scalar Network600.node210 	number_of_desired_resources 	20
scalar Network600.node210 	query_homogenity_rate 	33.333333333333
scalar Network600.node210 	qrecord_time 	8770
scalar Network600.node210 	discovery_resolution_rate 	66.666666666667
scalar Network600.node230 	rate_of_requesters 	1
scalar Network600.node230 	number_of_resources 	33000
scalar Network600.node230 	time_period 	1
scalar Network600.node230 	number_of_messages 	198
scalar Network600.node230 	discovery_latency 	4008
scalar Network600.node230 	number_of_desired_resources 	20
scalar Network600.node230 	query_homogenity_rate 	33.333333333333
scalar Network600.node230 	qrecord_time 	8776
scalar Network600.node230 	discovery_resolution_rate 	50
scalar Network600.node70 	rate_of_requesters 	1
scalar Network600.node70 	number_of_resources 	33000
scalar Network600.node70 	time_period 	1
scalar Network600.node70 	number_of_messages 	183
scalar Network600.node70 	discovery_latency 	4044
scalar Network600.node70 	number_of_desired_resources 	20
scalar Network600.node70 	query_homogenity_rate 	33.333333333333
scalar Network600.node70 	qrecord_time 	8776
scalar Network600.node70 	discovery_resolution_rate 	16.666666666667
scalar Network600.node130 	rate_of_requesters 	1
scalar Network600.node130 	number_of_resources 	33000
scalar Network600.node130 	time_period 	1
scalar Network600.node130 	number_of_messages 	5
scalar Network600.node130 	discovery_latency 	4044
scalar Network600.node130 	number_of_desired_resources 	20
scalar Network600.node130 	query_homogenity_rate 	33.333333333333
scalar Network600.node130 	qrecord_time 	8776
scalar Network600.node130 	discovery_resolution_rate 	33.333333333333
scalar Network600.node430 	rate_of_requesters 	1
scalar Network600.node430 	number_of_resources 	33000
scalar Network600.node430 	time_period 	1
scalar Network600.node430 	number_of_messages 	12
scalar Network600.node430 	discovery_latency 	4062
scalar Network600.node430 	number_of_desired_resources 	20
scalar Network600.node430 	query_homogenity_rate 	33.333333333333
scalar Network600.node430 	qrecord_time 	8782
scalar Network600.node430 	discovery_resolution_rate 	66.666666666667
scalar Network600.node580 	rate_of_requesters 	1
scalar Network600.node580 	number_of_resources 	33000
scalar Network600.node580 	time_period 	1
scalar Network600.node580 	number_of_messages 	4
scalar Network600.node580 	discovery_latency 	4056
scalar Network600.node580 	number_of_desired_resources 	20
scalar Network600.node580 	query_homogenity_rate 	33.333333333333
scalar Network600.node580 	qrecord_time 	8788
scalar Network600.node580 	discovery_resolution_rate 	33.333333333333
scalar Network600.node120 	rate_of_requesters 	1
scalar Network600.node120 	number_of_resources 	33000
scalar Network600.node120 	time_period 	1
scalar Network600.node120 	number_of_messages 	206
scalar Network600.node120 	discovery_latency 	4014
scalar Network600.node120 	number_of_desired_resources 	20
scalar Network600.node120 	query_homogenity_rate 	33.333333333333
scalar Network600.node120 	qrecord_time 	8806
scalar Network600.node120 	discovery_resolution_rate 	50
scalar Network600.node90 	rate_of_requesters 	1
scalar Network600.node90 	number_of_resources 	33000
scalar Network600.node90 	time_period 	1
scalar Network600.node90 	number_of_messages 	11
scalar Network600.node90 	discovery_latency 	4104
scalar Network600.node90 	number_of_desired_resources 	20
scalar Network600.node90 	query_homogenity_rate 	33.333333333333
scalar Network600.node90 	qrecord_time 	8812
scalar Network600.node90 	discovery_resolution_rate 	33.333333333333
scalar Network600.node280 	rate_of_requesters 	1
scalar Network600.node280 	number_of_resources 	33000
scalar Network600.node280 	time_period 	1
scalar Network600.node280 	number_of_messages 	184
scalar Network600.node280 	discovery_latency 	4074
scalar Network600.node280 	number_of_desired_resources 	20
scalar Network600.node280 	query_homogenity_rate 	33.333333333333
scalar Network600.node280 	qrecord_time 	8830
scalar Network600.node280 	discovery_resolution_rate 	16.666666666667
scalar Network600.node470 	rate_of_requesters 	1
scalar Network600.node470 	number_of_resources 	33000
scalar Network600.node470 	time_period 	1
scalar Network600.node470 	number_of_messages 	12
scalar Network600.node470 	discovery_latency 	4086
scalar Network600.node470 	number_of_desired_resources 	20
scalar Network600.node470 	query_homogenity_rate 	33.333333333333
scalar Network600.node470 	qrecord_time 	8842
scalar Network600.node470 	discovery_resolution_rate 	33.333333333333
scalar Network600.node140 	rate_of_requesters 	1
scalar Network600.node140 	number_of_resources 	33000
scalar Network600.node140 	time_period 	1
scalar Network600.node140 	number_of_messages 	14
scalar Network600.node140 	discovery_latency 	4086
scalar Network600.node140 	number_of_desired_resources 	20
scalar Network600.node140 	query_homogenity_rate 	33.333333333333
scalar Network600.node140 	qrecord_time 	8842
scalar Network600.node140 	discovery_resolution_rate 	33.333333333333
scalar Network600.node220 	rate_of_requesters 	1
scalar Network600.node220 	number_of_resources 	33000
scalar Network600.node220 	time_period 	1
scalar Network600.node220 	number_of_messages 	188
scalar Network600.node220 	discovery_latency 	4062
scalar Network600.node220 	number_of_desired_resources 	20
scalar Network600.node220 	query_homogenity_rate 	33.333333333333
scalar Network600.node220 	qrecord_time 	8860
scalar Network600.node220 	discovery_resolution_rate 	50
scalar Network600.node340 	rate_of_requesters 	1
scalar Network600.node340 	number_of_resources 	33000
scalar Network600.node340 	time_period 	1
scalar Network600.node340 	number_of_messages 	14
scalar Network600.node340 	discovery_latency 	4110
scalar Network600.node340 	number_of_desired_resources 	20
scalar Network600.node340 	query_homogenity_rate 	33.333333333333
scalar Network600.node340 	qrecord_time 	8920
scalar Network600.node340 	discovery_resolution_rate 	33.333333333333
scalar Network600.node480 	rate_of_requesters 	1
scalar Network600.node480 	number_of_resources 	33000
scalar Network600.node480 	time_period 	1
scalar Network600.node480 	number_of_messages 	2
scalar Network600.node480 	discovery_latency 	4164
scalar Network600.node480 	number_of_desired_resources 	20
scalar Network600.node480 	query_homogenity_rate 	33.333333333333
scalar Network600.node480 	qrecord_time 	8932
scalar Network600.node480 	discovery_resolution_rate 	0
scalar Network600.node510 	rate_of_requesters 	1
scalar Network600.node510 	number_of_resources 	33000
scalar Network600.node510 	time_period 	2
scalar Network600.node510 	number_of_messages 	2
scalar Network600.node510 	discovery_latency 	4044
scalar Network600.node510 	number_of_desired_resources 	20
scalar Network600.node510 	query_homogenity_rate 	33.333333333333
scalar Network600.node510 	qrecord_time 	8984.467568809
scalar Network600.node510 	discovery_resolution_rate 	0
scalar Network600.node410 	rate_of_requesters 	1
scalar Network600.node410 	number_of_resources 	33000
scalar Network600.node410 	time_period 	2
scalar Network600.node410 	number_of_messages 	8
scalar Network600.node410 	discovery_latency 	4038
scalar Network600.node410 	number_of_desired_resources 	20
scalar Network600.node410 	query_homogenity_rate 	33.333333333333
scalar Network600.node410 	qrecord_time 	8996.230123784
scalar Network600.node410 	discovery_resolution_rate 	33.333333333333
scalar Network600.node400 	rate_of_requesters 	1
scalar Network600.node400 	number_of_resources 	33000
scalar Network600.node400 	time_period 	1
scalar Network600.node400 	number_of_messages 	6
scalar Network600.node400 	discovery_latency 	4290
scalar Network600.node400 	number_of_desired_resources 	20
scalar Network600.node400 	query_homogenity_rate 	33.333333333333
scalar Network600.node400 	qrecord_time 	9004
scalar Network600.node400 	discovery_resolution_rate 	33.333333333333
scalar Network600.node110 	rate_of_requesters 	1
scalar Network600.node110 	number_of_resources 	33000
scalar Network600.node110 	time_period 	2
scalar Network600.node110 	number_of_messages 	0
scalar Network600.node110 	discovery_latency 	4020
scalar Network600.node110 	number_of_desired_resources 	20
scalar Network600.node110 	query_homogenity_rate 	33.333333333333
scalar Network600.node110 	qrecord_time 	9009.752411905
scalar Network600.node110 	discovery_resolution_rate 	0
scalar Network600.node50 	rate_of_requesters 	1
scalar Network600.node50 	number_of_resources 	33000
scalar Network600.node50 	time_period 	2
scalar Network600.node50 	number_of_messages 	2
scalar Network600.node50 	discovery_latency 	4134
scalar Network600.node50 	number_of_desired_resources 	20
scalar Network600.node50 	query_homogenity_rate 	33.333333333333
scalar Network600.node50 	qrecord_time 	9093.034381584
scalar Network600.node50 	discovery_resolution_rate 	0
scalar Network600.node70 	rate_of_requesters 	1
scalar Network600.node70 	number_of_resources 	33000
scalar Network600.node70 	time_period 	2
scalar Network600.node70 	number_of_messages 	2
scalar Network600.node70 	discovery_latency 	3864
scalar Network600.node70 	number_of_desired_resources 	20
scalar Network600.node70 	query_homogenity_rate 	33.333333333333
scalar Network600.node70 	qrecord_time 	9188.090983431
scalar Network600.node70 	discovery_resolution_rate 	0
scalar Network600.node590 	rate_of_requesters 	1
scalar Network600.node590 	number_of_resources 	33000
scalar Network600.node590 	time_period 	2
scalar Network600.node590 	number_of_messages 	2
scalar Network600.node590 	discovery_latency 	3948
scalar Network600.node590 	number_of_desired_resources 	20
scalar Network600.node590 	query_homogenity_rate 	33.333333333333
scalar Network600.node590 	qrecord_time 	9279.627082058
scalar Network600.node590 	discovery_resolution_rate 	0
scalar Network600.node0 	rate_of_requesters 	1
scalar Network600.node0 	number_of_resources 	33000
scalar Network600.node0 	time_period 	2
scalar Network600.node0 	number_of_messages 	2
scalar Network600.node0 	discovery_latency 	4056
scalar Network600.node0 	number_of_desired_resources 	20
scalar Network600.node0 	query_homogenity_rate 	33.333333333333
scalar Network600.node0 	qrecord_time 	9413.294463651
scalar Network600.node0 	discovery_resolution_rate 	0
scalar Network600.node370 	rate_of_requesters 	1
scalar Network600.node370 	number_of_resources 	33000
scalar Network600.node370 	time_period 	2
scalar Network600.node370 	number_of_messages 	2
scalar Network600.node370 	discovery_latency 	4026
scalar Network600.node370 	number_of_desired_resources 	20
scalar Network600.node370 	query_homogenity_rate 	33.333333333333
scalar Network600.node370 	qrecord_time 	9449.191806422
scalar Network600.node370 	discovery_resolution_rate 	0
scalar Network600.node480 	rate_of_requesters 	1
scalar Network600.node480 	number_of_resources 	33000
scalar Network600.node480 	time_period 	2
scalar Network600.node480 	number_of_messages 	2
scalar Network600.node480 	discovery_latency 	4062
scalar Network600.node480 	number_of_desired_resources 	20
scalar Network600.node480 	query_homogenity_rate 	33.333333333333
scalar Network600.node480 	qrecord_time 	9466.725603002
scalar Network600.node480 	discovery_resolution_rate 	0
scalar Network600.node550 	rate_of_requesters 	1
scalar Network600.node550 	number_of_resources 	33000
scalar Network600.node550 	time_period 	2
scalar Network600.node550 	number_of_messages 	0
scalar Network600.node550 	discovery_latency 	4086
scalar Network600.node550 	number_of_desired_resources 	20
scalar Network600.node550 	query_homogenity_rate 	33.333333333333
scalar Network600.node550 	qrecord_time 	9472.012966681
scalar Network600.node550 	discovery_resolution_rate 	0
scalar Network600.node410 	rate_of_requesters 	1
scalar Network600.node410 	number_of_resources 	33000
scalar Network600.node410 	time_period 	3
scalar Network600.node410 	number_of_messages 	2
scalar Network600.node410 	discovery_latency 	4158
scalar Network600.node410 	number_of_desired_resources 	20
scalar Network600.node410 	query_homogenity_rate 	33.333333333333
scalar Network600.node410 	qrecord_time 	9574.248906802
scalar Network600.node410 	discovery_resolution_rate 	0
scalar Network600.node460 	rate_of_requesters 	1
scalar Network600.node460 	number_of_resources 	33000
scalar Network600.node460 	time_period 	2
scalar Network600.node460 	number_of_messages 	2
scalar Network600.node460 	discovery_latency 	4128
scalar Network600.node460 	number_of_desired_resources 	20
scalar Network600.node460 	query_homogenity_rate 	33.333333333333
scalar Network600.node460 	qrecord_time 	9615.838418099
scalar Network600.node460 	discovery_resolution_rate 	0
scalar Network600.node40 	rate_of_requesters 	1
scalar Network600.node40 	number_of_resources 	33000
scalar Network600.node40 	time_period 	2
scalar Network600.node40 	number_of_messages 	2
scalar Network600.node40 	discovery_latency 	4086
scalar Network600.node40 	number_of_desired_resources 	20
scalar Network600.node40 	query_homogenity_rate 	33.333333333333
scalar Network600.node40 	qrecord_time 	9722.151864489
scalar Network600.node40 	discovery_resolution_rate 	0
scalar Network600.node580 	rate_of_requesters 	1
scalar Network600.node580 	number_of_resources 	33000
scalar Network600.node580 	time_period 	2
scalar Network600.node580 	number_of_messages 	2
scalar Network600.node580 	discovery_latency 	4008
scalar Network600.node580 	number_of_desired_resources 	20
scalar Network600.node580 	query_homogenity_rate 	33.333333333333
scalar Network600.node580 	qrecord_time 	9751.112818587
scalar Network600.node580 	discovery_resolution_rate 	0
scalar Network600.node400 	rate_of_requesters 	1
scalar Network600.node400 	number_of_resources 	33000
scalar Network600.node400 	time_period 	2
scalar Network600.node400 	number_of_messages 	2
scalar Network600.node400 	discovery_latency 	4056
scalar Network600.node400 	number_of_desired_resources 	20
scalar Network600.node400 	query_homogenity_rate 	33.333333333333
scalar Network600.node400 	qrecord_time 	9902.215627877
scalar Network600.node400 	discovery_resolution_rate 	0
scalar Network600.node330 	rate_of_requesters 	1
scalar Network600.node330 	number_of_resources 	33000
scalar Network600.node330 	time_period 	2
scalar Network600.node330 	number_of_messages 	2
scalar Network600.node330 	discovery_latency 	4086
scalar Network600.node330 	number_of_desired_resources 	20
scalar Network600.node330 	query_homogenity_rate 	33.333333333333
scalar Network600.node330 	qrecord_time 	10003.250391518
scalar Network600.node330 	discovery_resolution_rate 	0
scalar Network600.node100 	rate_of_requesters 	1
scalar Network600.node100 	number_of_resources 	33000
scalar Network600.node100 	time_period 	2
scalar Network600.node100 	number_of_messages 	2
scalar Network600.node100 	discovery_latency 	4032
scalar Network600.node100 	number_of_desired_resources 	20
scalar Network600.node100 	query_homogenity_rate 	33.333333333333
scalar Network600.node100 	qrecord_time 	10035.716571237
scalar Network600.node100 	discovery_resolution_rate 	0
scalar Network600.node200 	rate_of_requesters 	1
scalar Network600.node200 	number_of_resources 	33000
scalar Network600.node200 	time_period 	2
scalar Network600.node200 	number_of_messages 	184
scalar Network600.node200 	discovery_latency 	4170
scalar Network600.node200 	number_of_desired_resources 	20
scalar Network600.node200 	query_homogenity_rate 	33.333333333333
scalar Network600.node200 	qrecord_time 	10144.265865319
scalar Network600.node200 	discovery_resolution_rate 	16.666666666667
scalar Network600.node530 	rate_of_requesters 	1
scalar Network600.node530 	number_of_resources 	33000
scalar Network600.node530 	time_period 	2
scalar Network600.node530 	number_of_messages 	2
scalar Network600.node530 	discovery_latency 	4056
scalar Network600.node530 	number_of_desired_resources 	20
scalar Network600.node530 	query_homogenity_rate 	33.333333333333
scalar Network600.node530 	qrecord_time 	10228.359503256
scalar Network600.node530 	discovery_resolution_rate 	0
scalar Network600.node580 	rate_of_requesters 	1
scalar Network600.node580 	number_of_resources 	33000
scalar Network600.node580 	time_period 	3
scalar Network600.node580 	number_of_messages 	2
scalar Network600.node580 	discovery_latency 	4116
scalar Network600.node580 	number_of_desired_resources 	20
scalar Network600.node580 	query_homogenity_rate 	33.333333333333
scalar Network600.node580 	qrecord_time 	10278.750623878
scalar Network600.node580 	discovery_resolution_rate 	0
scalar Network600.node190 	rate_of_requesters 	1
scalar Network600.node190 	number_of_resources 	33000
scalar Network600.node190 	time_period 	2
scalar Network600.node190 	number_of_messages 	2
scalar Network600.node190 	discovery_latency 	3984
scalar Network600.node190 	number_of_desired_resources 	20
scalar Network600.node190 	query_homogenity_rate 	33.333333333333
scalar Network600.node190 	qrecord_time 	10301.1192734
scalar Network600.node190 	discovery_resolution_rate 	0
scalar Network600.node450 	rate_of_requesters 	1
scalar Network600.node450 	number_of_resources 	33000
scalar Network600.node450 	time_period 	2
scalar Network600.node450 	number_of_messages 	2
scalar Network600.node450 	discovery_latency 	4206
scalar Network600.node450 	number_of_desired_resources 	20
scalar Network600.node450 	query_homogenity_rate 	33.333333333333
scalar Network600.node450 	qrecord_time 	10347.24696786
scalar Network600.node450 	discovery_resolution_rate 	0
scalar Network600.node190 	rate_of_requesters 	1
scalar Network600.node190 	number_of_resources 	33000
scalar Network600.node190 	time_period 	3
scalar Network600.node190 	number_of_messages 	2
scalar Network600.node190 	discovery_latency 	4086
scalar Network600.node190 	number_of_desired_resources 	20
scalar Network600.node190 	query_homogenity_rate 	33.333333333333
scalar Network600.node190 	qrecord_time 	10448.731627124
scalar Network600.node190 	discovery_resolution_rate 	0
scalar Network600.node10 	rate_of_requesters 	1
scalar Network600.node10 	number_of_resources 	33000
scalar Network600.node10 	time_period 	2
scalar Network600.node10 	number_of_messages 	2
scalar Network600.node10 	discovery_latency 	4128
scalar Network600.node10 	number_of_desired_resources 	20
scalar Network600.node10 	query_homogenity_rate 	33.333333333333
scalar Network600.node10 	qrecord_time 	10459.547835348
scalar Network600.node10 	discovery_resolution_rate 	0
scalar Network600.node190 	rate_of_requesters 	1
scalar Network600.node190 	number_of_resources 	33000
scalar Network600.node190 	time_period 	4
scalar Network600.node190 	number_of_messages 	2
scalar Network600.node190 	discovery_latency 	4074
scalar Network600.node190 	number_of_desired_resources 	20
scalar Network600.node190 	query_homogenity_rate 	33.333333333333
scalar Network600.node190 	qrecord_time 	10526.44459846
scalar Network600.node190 	discovery_resolution_rate 	0
scalar Network600.node130 	rate_of_requesters 	1
scalar Network600.node130 	number_of_resources 	33000
scalar Network600.node130 	time_period 	2
scalar Network600.node130 	number_of_messages 	2
scalar Network600.node130 	discovery_latency 	4074
scalar Network600.node130 	number_of_desired_resources 	20
scalar Network600.node130 	query_homogenity_rate 	33.333333333333
scalar Network600.node130 	qrecord_time 	10554.224968845
scalar Network600.node130 	discovery_resolution_rate 	0
scalar Network600.node90 	rate_of_requesters 	1
scalar Network600.node90 	number_of_resources 	33000
scalar Network600.node90 	time_period 	2
scalar Network600.node90 	number_of_messages 	141
scalar Network600.node90 	discovery_latency 	3876
scalar Network600.node90 	number_of_desired_resources 	20
scalar Network600.node90 	query_homogenity_rate 	33.333333333333
scalar Network600.node90 	qrecord_time 	10560.144024185
scalar Network600.node90 	discovery_resolution_rate 	33.333333333333
scalar Network600.node310 	rate_of_requesters 	1
scalar Network600.node310 	number_of_resources 	33000
scalar Network600.node310 	time_period 	2
scalar Network600.node310 	number_of_messages 	2
scalar Network600.node310 	discovery_latency 	4062
scalar Network600.node310 	number_of_desired_resources 	20
scalar Network600.node310 	query_homogenity_rate 	33.333333333333
scalar Network600.node310 	qrecord_time 	10617.277686028
scalar Network600.node310 	discovery_resolution_rate 	0
scalar Network600.node390 	rate_of_requesters 	1
scalar Network600.node390 	number_of_resources 	33000
scalar Network600.node390 	time_period 	2
scalar Network600.node390 	number_of_messages 	2
scalar Network600.node390 	discovery_latency 	4020
scalar Network600.node390 	number_of_desired_resources 	20
scalar Network600.node390 	query_homogenity_rate 	33.333333333333
scalar Network600.node390 	qrecord_time 	10678.285155799
scalar Network600.node390 	discovery_resolution_rate 	0
scalar Network600.node340 	rate_of_requesters 	1
scalar Network600.node340 	number_of_resources 	33000
scalar Network600.node340 	time_period 	2
scalar Network600.node340 	number_of_messages 	2
scalar Network600.node340 	discovery_latency 	4140
scalar Network600.node340 	number_of_desired_resources 	20
scalar Network600.node340 	query_homogenity_rate 	33.333333333333
scalar Network600.node340 	qrecord_time 	10764.873283479
scalar Network600.node340 	discovery_resolution_rate 	0
scalar Network600.node10 	rate_of_requesters 	1
scalar Network600.node10 	number_of_resources 	33000
scalar Network600.node10 	time_period 	3
scalar Network600.node10 	number_of_messages 	2
scalar Network600.node10 	discovery_latency 	4128
scalar Network600.node10 	number_of_desired_resources 	20
scalar Network600.node10 	query_homogenity_rate 	33.333333333333
scalar Network600.node10 	qrecord_time 	10805.700615919
scalar Network600.node10 	discovery_resolution_rate 	0
scalar Network600.node500 	rate_of_requesters 	1
scalar Network600.node500 	number_of_resources 	33000
scalar Network600.node500 	time_period 	2
scalar Network600.node500 	number_of_messages 	2
scalar Network600.node500 	discovery_latency 	4014
scalar Network600.node500 	number_of_desired_resources 	20
scalar Network600.node500 	query_homogenity_rate 	33.333333333333
scalar Network600.node500 	qrecord_time 	10906.345100567
scalar Network600.node500 	discovery_resolution_rate 	0
scalar Network600.node170 	rate_of_requesters 	1
scalar Network600.node170 	number_of_resources 	33000
scalar Network600.node170 	time_period 	2
scalar Network600.node170 	number_of_messages 	2
scalar Network600.node170 	discovery_latency 	4098
scalar Network600.node170 	number_of_desired_resources 	20
scalar Network600.node170 	query_homogenity_rate 	33.333333333333
scalar Network600.node170 	qrecord_time 	10908.130578626
scalar Network600.node170 	discovery_resolution_rate 	0
scalar Network600.node170 	rate_of_requesters 	1
scalar Network600.node170 	number_of_resources 	33000
scalar Network600.node170 	time_period 	3
scalar Network600.node170 	number_of_messages 	148
scalar Network600.node170 	discovery_latency 	4014
scalar Network600.node170 	number_of_desired_resources 	20
scalar Network600.node170 	query_homogenity_rate 	33.333333333333
scalar Network600.node170 	qrecord_time 	10915.2927598
scalar Network600.node170 	discovery_resolution_rate 	33.333333333333
scalar Network600.node560 	rate_of_requesters 	1
scalar Network600.node560 	number_of_resources 	33000
scalar Network600.node560 	time_period 	2
scalar Network600.node560 	number_of_messages 	2
scalar Network600.node560 	discovery_latency 	3900
scalar Network600.node560 	number_of_desired_resources 	20
scalar Network600.node560 	query_homogenity_rate 	33.333333333333
scalar Network600.node560 	qrecord_time 	10946.948836648
scalar Network600.node560 	discovery_resolution_rate 	0
scalar Network600.node80 	rate_of_requesters 	1
scalar Network600.node80 	number_of_resources 	33000
scalar Network600.node80 	time_period 	2
scalar Network600.node80 	number_of_messages 	2
scalar Network600.node80 	discovery_latency 	4230
scalar Network600.node80 	number_of_desired_resources 	20
scalar Network600.node80 	query_homogenity_rate 	33.333333333333
scalar Network600.node80 	qrecord_time 	11060.265539671
scalar Network600.node80 	discovery_resolution_rate 	0
scalar Network600.node50 	rate_of_requesters 	1
scalar Network600.node50 	number_of_resources 	33000
scalar Network600.node50 	time_period 	3
scalar Network600.node50 	number_of_messages 	2
scalar Network600.node50 	discovery_latency 	4158
scalar Network600.node50 	number_of_desired_resources 	20
scalar Network600.node50 	query_homogenity_rate 	33.333333333333
scalar Network600.node50 	qrecord_time 	11075.515912098
scalar Network600.node50 	discovery_resolution_rate 	0
scalar Network600.node360 	rate_of_requesters 	1
scalar Network600.node360 	number_of_resources 	33000
scalar Network600.node360 	time_period 	2
scalar Network600.node360 	number_of_messages 	2
scalar Network600.node360 	discovery_latency 	4044
scalar Network600.node360 	number_of_desired_resources 	20
scalar Network600.node360 	query_homogenity_rate 	33.333333333333
scalar Network600.node360 	qrecord_time 	11167.003598844
scalar Network600.node360 	discovery_resolution_rate 	0
scalar Network600.node390 	rate_of_requesters 	1
scalar Network600.node390 	number_of_resources 	33000
scalar Network600.node390 	time_period 	3
scalar Network600.node390 	number_of_messages 	2
scalar Network600.node390 	discovery_latency 	4200
scalar Network600.node390 	number_of_desired_resources 	20
scalar Network600.node390 	query_homogenity_rate 	33.333333333333
scalar Network600.node390 	qrecord_time 	11195.673770009
scalar Network600.node390 	discovery_resolution_rate 	0
scalar Network600.node300 	rate_of_requesters 	1
scalar Network600.node300 	number_of_resources 	33000
scalar Network600.node300 	time_period 	2
scalar Network600.node300 	number_of_messages 	2
scalar Network600.node300 	discovery_latency 	4038
scalar Network600.node300 	number_of_desired_resources 	20
scalar Network600.node300 	query_homogenity_rate 	33.333333333333
scalar Network600.node300 	qrecord_time 	11214.290017325
scalar Network600.node300 	discovery_resolution_rate 	0
scalar Network600.node550 	rate_of_requesters 	1
scalar Network600.node550 	number_of_resources 	33000
scalar Network600.node550 	time_period 	3
scalar Network600.node550 	number_of_messages 	0
scalar Network600.node550 	discovery_latency 	3936
scalar Network600.node550 	number_of_desired_resources 	20
scalar Network600.node550 	query_homogenity_rate 	33.333333333333
scalar Network600.node550 	qrecord_time 	11365.323314664
scalar Network600.node550 	discovery_resolution_rate 	0
scalar Network600.node310 	rate_of_requesters 	1
scalar Network600.node310 	number_of_resources 	33000
scalar Network600.node310 	time_period 	3
scalar Network600.node310 	number_of_messages 	2
scalar Network600.node310 	discovery_latency 	3924
scalar Network600.node310 	number_of_desired_resources 	20
scalar Network600.node310 	query_homogenity_rate 	33.333333333333
scalar Network600.node310 	qrecord_time 	11377.745523361
scalar Network600.node310 	discovery_resolution_rate 	0
scalar Network600.node290 	rate_of_requesters 	1
scalar Network600.node290 	number_of_resources 	33000
scalar Network600.node290 	time_period 	2
scalar Network600.node290 	number_of_messages 	2
scalar Network600.node290 	discovery_latency 	4008
scalar Network600.node290 	number_of_desired_resources 	20
scalar Network600.node290 	query_homogenity_rate 	33.333333333333
scalar Network600.node290 	qrecord_time 	11396.295391395
scalar Network600.node290 	discovery_resolution_rate 	0
scalar Network600.node0 	rate_of_requesters 	1
scalar Network600.node0 	number_of_resources 	33000
scalar Network600.node0 	time_period 	3
scalar Network600.node0 	number_of_messages 	2
scalar Network600.node0 	discovery_latency 	4218
scalar Network600.node0 	number_of_desired_resources 	20
scalar Network600.node0 	query_homogenity_rate 	33.333333333333
scalar Network600.node0 	qrecord_time 	11455.788009378
scalar Network600.node0 	discovery_resolution_rate 	0
scalar Network600.node530 	rate_of_requesters 	1
scalar Network600.node530 	number_of_resources 	33000
scalar Network600.node530 	time_period 	3
scalar Network600.node530 	number_of_messages 	2
scalar Network600.node530 	discovery_latency 	4008
scalar Network600.node530 	number_of_desired_resources 	20
scalar Network600.node530 	query_homogenity_rate 	33.333333333333
scalar Network600.node530 	qrecord_time 	11517.803051769
scalar Network600.node530 	discovery_resolution_rate 	0
scalar Network600.node170 	rate_of_requesters 	1
scalar Network600.node170 	number_of_resources 	33000
scalar Network600.node170 	time_period 	4
scalar Network600.node170 	number_of_messages 	211
scalar Network600.node170 	discovery_latency 	3516
scalar Network600.node170 	number_of_desired_resources 	20
scalar Network600.node170 	query_homogenity_rate 	33.333333333333
scalar Network600.node170 	qrecord_time 	11630.648451124
scalar Network600.node170 	discovery_resolution_rate 	66.666666666667
scalar Network600.node60 	rate_of_requesters 	1
scalar Network600.node60 	number_of_resources 	33000
scalar Network600.node60 	time_period 	2
scalar Network600.node60 	number_of_messages 	2
scalar Network600.node60 	discovery_latency 	3984
scalar Network600.node60 	number_of_desired_resources 	20
scalar Network600.node60 	query_homogenity_rate 	33.333333333333
scalar Network600.node60 	qrecord_time 	11710.139777959
scalar Network600.node60 	discovery_resolution_rate 	0
scalar Network600.node70 	rate_of_requesters 	1
scalar Network600.node70 	number_of_resources 	33000
scalar Network600.node70 	time_period 	3
scalar Network600.node70 	number_of_messages 	2
scalar Network600.node70 	discovery_latency 	4170
scalar Network600.node70 	number_of_desired_resources 	20
scalar Network600.node70 	query_homogenity_rate 	33.333333333333
scalar Network600.node70 	qrecord_time 	11738.270554775
scalar Network600.node70 	discovery_resolution_rate 	0
scalar Network600.node110 	rate_of_requesters 	1
scalar Network600.node110 	number_of_resources 	33000
scalar Network600.node110 	time_period 	3
scalar Network600.node110 	number_of_messages 	0
scalar Network600.node110 	discovery_latency 	4068
scalar Network600.node110 	number_of_desired_resources 	20
scalar Network600.node110 	query_homogenity_rate 	33.333333333333
scalar Network600.node110 	qrecord_time 	11765.78489563
scalar Network600.node110 	discovery_resolution_rate 	0
scalar Network600.node290 	rate_of_requesters 	1
scalar Network600.node290 	number_of_resources 	33000
scalar Network600.node290 	time_period 	3
scalar Network600.node290 	number_of_messages 	2
scalar Network600.node290 	discovery_latency 	4062
scalar Network600.node290 	number_of_desired_resources 	20
scalar Network600.node290 	query_homogenity_rate 	33.333333333333
scalar Network600.node290 	qrecord_time 	11787.765586016
scalar Network600.node290 	discovery_resolution_rate 	0
scalar Network600.node410 	rate_of_requesters 	1
scalar Network600.node410 	number_of_resources 	33000
scalar Network600.node410 	time_period 	4
scalar Network600.node410 	number_of_messages 	71
scalar Network600.node410 	discovery_latency 	4008
scalar Network600.node410 	number_of_desired_resources 	20
scalar Network600.node410 	query_homogenity_rate 	33.333333333333
scalar Network600.node410 	qrecord_time 	11796.943571769
scalar Network600.node410 	discovery_resolution_rate 	33.333333333333
scalar Network600.node360 	rate_of_requesters 	1
scalar Network600.node360 	number_of_resources 	33000
scalar Network600.node360 	time_period 	3
scalar Network600.node360 	number_of_messages 	2
scalar Network600.node360 	discovery_latency 	4224
scalar Network600.node360 	number_of_desired_resources 	20
scalar Network600.node360 	query_homogenity_rate 	33.333333333333
scalar Network600.node360 	qrecord_time 	11860.687615428
scalar Network600.node360 	discovery_resolution_rate 	0
scalar Network600.node430 	rate_of_requesters 	1
scalar Network600.node430 	number_of_resources 	33000
scalar Network600.node430 	time_period 	2
scalar Network600.node430 	number_of_messages 	0
scalar Network600.node430 	discovery_latency 	4080
scalar Network600.node430 	number_of_desired_resources 	20
scalar Network600.node430 	query_homogenity_rate 	33.333333333333
scalar Network600.node430 	qrecord_time 	11875.109598291
scalar Network600.node430 	discovery_resolution_rate 	0
scalar Network600.node170 	rate_of_requesters 	1
scalar Network600.node170 	number_of_resources 	33000
scalar Network600.node170 	time_period 	7
scalar Network600.node170 	number_of_messages 	187
scalar Network600.node170 	discovery_latency 	1656
scalar Network600.node170 	number_of_desired_resources 	20
scalar Network600.node170 	query_homogenity_rate 	33.333333333333
scalar Network600.node170 	qrecord_time 	12059.563526244
scalar Network600.node170 	discovery_resolution_rate 	100
scalar Network600.node530 	rate_of_requesters 	1
scalar Network600.node530 	number_of_resources 	33000
scalar Network600.node530 	time_period 	4
scalar Network600.node530 	number_of_messages 	2
scalar Network600.node530 	discovery_latency 	4056
scalar Network600.node530 	number_of_desired_resources 	20
scalar Network600.node530 	query_homogenity_rate 	33.333333333333
scalar Network600.node530 	qrecord_time 	12139.659635594
scalar Network600.node530 	discovery_resolution_rate 	0
scalar Network600.node170 	rate_of_requesters 	1
scalar Network600.node170 	number_of_resources 	33000
scalar Network600.node170 	time_period 	5
scalar Network600.node170 	number_of_messages 	68
scalar Network600.node170 	discovery_latency 	4044
scalar Network600.node170 	number_of_desired_resources 	20
scalar Network600.node170 	query_homogenity_rate 	33.333333333333
scalar Network600.node170 	qrecord_time 	12188.845200004
scalar Network600.node170 	discovery_resolution_rate 	33.333333333333
scalar Network600.node490 	rate_of_requesters 	1
scalar Network600.node490 	number_of_resources 	33000
scalar Network600.node490 	time_period 	2
scalar Network600.node490 	number_of_messages 	2
scalar Network600.node490 	discovery_latency 	3984
scalar Network600.node490 	number_of_desired_resources 	20
scalar Network600.node490 	query_homogenity_rate 	33.333333333333
scalar Network600.node490 	qrecord_time 	12222.713257355
scalar Network600.node490 	discovery_resolution_rate 	0
scalar Network600.node30 	rate_of_requesters 	1
scalar Network600.node30 	number_of_resources 	33000
scalar Network600.node30 	time_period 	2
scalar Network600.node30 	number_of_messages 	2
scalar Network600.node30 	discovery_latency 	4032
scalar Network600.node30 	number_of_desired_resources 	20
scalar Network600.node30 	query_homogenity_rate 	33.333333333333
scalar Network600.node30 	qrecord_time 	12223.265545131
scalar Network600.node30 	discovery_resolution_rate 	0
scalar Network600.node100 	rate_of_requesters 	1
scalar Network600.node100 	number_of_resources 	33000
scalar Network600.node100 	time_period 	3
scalar Network600.node100 	number_of_messages 	2
scalar Network600.node100 	discovery_latency 	3984
scalar Network600.node100 	number_of_desired_resources 	20
scalar Network600.node100 	query_homogenity_rate 	33.333333333333
scalar Network600.node100 	qrecord_time 	12252.485386198
scalar Network600.node100 	discovery_resolution_rate 	0
scalar Network600.node340 	rate_of_requesters 	1
scalar Network600.node340 	number_of_resources 	33000
scalar Network600.node340 	time_period 	3
scalar Network600.node340 	number_of_messages 	30
scalar Network600.node340 	discovery_latency 	3918
scalar Network600.node340 	number_of_desired_resources 	20
scalar Network600.node340 	query_homogenity_rate 	33.333333333333
scalar Network600.node340 	qrecord_time 	12256.180496546
scalar Network600.node340 	discovery_resolution_rate 	33.333333333333
scalar Network600.node40 	rate_of_requesters 	1
scalar Network600.node40 	number_of_resources 	33000
scalar Network600.node40 	time_period 	3
scalar Network600.node40 	number_of_messages 	254
scalar Network600.node40 	discovery_latency 	2628
scalar Network600.node40 	number_of_desired_resources 	20
scalar Network600.node40 	query_homogenity_rate 	33.333333333333
scalar Network600.node40 	qrecord_time 	12256.93611779
scalar Network600.node40 	discovery_resolution_rate 	100
scalar Network600.node510 	rate_of_requesters 	1
scalar Network600.node510 	number_of_resources 	33000
scalar Network600.node510 	time_period 	3
scalar Network600.node510 	number_of_messages 	2
scalar Network600.node510 	discovery_latency 	4200
scalar Network600.node510 	number_of_desired_resources 	20
scalar Network600.node510 	query_homogenity_rate 	33.333333333333
scalar Network600.node510 	qrecord_time 	12281.776990095
scalar Network600.node510 	discovery_resolution_rate 	0
scalar Network600.node400 	rate_of_requesters 	1
scalar Network600.node400 	number_of_resources 	33000
scalar Network600.node400 	time_period 	3
scalar Network600.node400 	number_of_messages 	2
scalar Network600.node400 	discovery_latency 	4056
scalar Network600.node400 	number_of_desired_resources 	20
scalar Network600.node400 	query_homogenity_rate 	33.333333333333
scalar Network600.node400 	qrecord_time 	12288.680986363
scalar Network600.node400 	discovery_resolution_rate 	0
scalar Network600.node550 	rate_of_requesters 	1
scalar Network600.node550 	number_of_resources 	33000
scalar Network600.node550 	time_period 	4
scalar Network600.node550 	number_of_messages 	108
scalar Network600.node550 	discovery_latency 	4122
scalar Network600.node550 	number_of_desired_resources 	20
scalar Network600.node550 	query_homogenity_rate 	33.333333333333
scalar Network600.node550 	qrecord_time 	12292.954502621
scalar Network600.node550 	discovery_resolution_rate 	33.333333333333
scalar Network600.node70 	rate_of_requesters 	1
scalar Network600.node70 	number_of_resources 	33000
scalar Network600.node70 	time_period 	4
scalar Network600.node70 	number_of_messages 	2
scalar Network600.node70 	discovery_latency 	4032
scalar Network600.node70 	number_of_desired_resources 	20
scalar Network600.node70 	query_homogenity_rate 	33.333333333333
scalar Network600.node70 	qrecord_time 	12321.316407905
scalar Network600.node70 	discovery_resolution_rate 	0
scalar Network600.node260 	rate_of_requesters 	1
scalar Network600.node260 	number_of_resources 	33000
scalar Network600.node260 	time_period 	2
scalar Network600.node260 	number_of_messages 	2
scalar Network600.node260 	discovery_latency 	3924
scalar Network600.node260 	number_of_desired_resources 	20
scalar Network600.node260 	query_homogenity_rate 	33.333333333333
scalar Network600.node260 	qrecord_time 	12325.285107299
scalar Network600.node260 	discovery_resolution_rate 	0
scalar Network600.node150 	rate_of_requesters 	1
scalar Network600.node150 	number_of_resources 	33000
scalar Network600.node150 	time_period 	2
scalar Network600.node150 	number_of_messages 	159
scalar Network600.node150 	discovery_latency 	4002
scalar Network600.node150 	number_of_desired_resources 	20
scalar Network600.node150 	query_homogenity_rate 	33.333333333333
scalar Network600.node150 	qrecord_time 	12417.785462941
scalar Network600.node150 	discovery_resolution_rate 	33.333333333333
scalar Network600.node70 	rate_of_requesters 	1
scalar Network600.node70 	number_of_resources 	33000
scalar Network600.node70 	time_period 	5
scalar Network600.node70 	number_of_messages 	157
scalar Network600.node70 	discovery_latency 	4080
scalar Network600.node70 	number_of_desired_resources 	20
scalar Network600.node70 	query_homogenity_rate 	33.333333333333
scalar Network600.node70 	qrecord_time 	12498.546911702
scalar Network600.node70 	discovery_resolution_rate 	33.333333333333
scalar Network600.node360 	rate_of_requesters 	1
scalar Network600.node360 	number_of_resources 	33000
scalar Network600.node360 	time_period 	4
scalar Network600.node360 	number_of_messages 	2
scalar Network600.node360 	discovery_latency 	4134
scalar Network600.node360 	number_of_desired_resources 	20
scalar Network600.node360 	query_homogenity_rate 	33.333333333333
scalar Network600.node360 	qrecord_time 	12645.506555542
scalar Network600.node360 	discovery_resolution_rate 	0
scalar Network600.node170 	rate_of_requesters 	1
scalar Network600.node170 	number_of_resources 	33000
scalar Network600.node170 	time_period 	6
scalar Network600.node170 	number_of_messages 	231
scalar Network600.node170 	discovery_latency 	2598
scalar Network600.node170 	number_of_desired_resources 	20
scalar Network600.node170 	query_homogenity_rate 	33.333333333333
scalar Network600.node170 	qrecord_time 	12648.179050308
scalar Network600.node170 	discovery_resolution_rate 	100
scalar Network600.node470 	rate_of_requesters 	1
scalar Network600.node470 	number_of_resources 	33000
scalar Network600.node470 	time_period 	2
scalar Network600.node470 	number_of_messages 	111
scalar Network600.node470 	discovery_latency 	3870
scalar Network600.node470 	number_of_desired_resources 	20
scalar Network600.node470 	query_homogenity_rate 	33.333333333333
scalar Network600.node470 	qrecord_time 	12726.06034339
scalar Network600.node470 	discovery_resolution_rate 	33.333333333333
scalar Network600.node150 	rate_of_requesters 	1
scalar Network600.node150 	number_of_resources 	33000
scalar Network600.node150 	time_period 	3
scalar Network600.node150 	number_of_messages 	90
scalar Network600.node150 	discovery_latency 	3822
scalar Network600.node150 	number_of_desired_resources 	20
scalar Network600.node150 	query_homogenity_rate 	33.333333333333
scalar Network600.node150 	qrecord_time 	12789.930888495
scalar Network600.node150 	discovery_resolution_rate 	33.333333333333
scalar Network600.node160 	rate_of_requesters 	1
scalar Network600.node160 	number_of_resources 	33000
scalar Network600.node160 	time_period 	2
scalar Network600.node160 	number_of_messages 	201
scalar Network600.node160 	discovery_latency 	2526
scalar Network600.node160 	number_of_desired_resources 	20
scalar Network600.node160 	query_homogenity_rate 	33.333333333333
scalar Network600.node160 	qrecord_time 	12808.002193437
scalar Network600.node160 	discovery_resolution_rate 	100
scalar Network600.node570 	rate_of_requesters 	1
scalar Network600.node570 	number_of_resources 	33000
scalar Network600.node570 	time_period 	2
scalar Network600.node570 	number_of_messages 	160
scalar Network600.node570 	discovery_latency 	4176
scalar Network600.node570 	number_of_desired_resources 	20
scalar Network600.node570 	query_homogenity_rate 	33.333333333333
scalar Network600.node570 	qrecord_time 	12848.549907967
scalar Network600.node570 	discovery_resolution_rate 	33.333333333333
scalar Network600.node530 	rate_of_requesters 	1
scalar Network600.node530 	number_of_resources 	33000
scalar Network600.node530 	time_period 	5
scalar Network600.node530 	number_of_messages 	2
scalar Network600.node530 	discovery_latency 	4188
scalar Network600.node530 	number_of_desired_resources 	20
scalar Network600.node530 	query_homogenity_rate 	33.333333333333
scalar Network600.node530 	qrecord_time 	12862.903857876
scalar Network600.node530 	discovery_resolution_rate 	0
scalar Network600.node510 	rate_of_requesters 	1
scalar Network600.node510 	number_of_resources 	33000
scalar Network600.node510 	time_period 	4
scalar Network600.node510 	number_of_messages 	167
scalar Network600.node510 	discovery_latency 	4158
scalar Network600.node510 	number_of_desired_resources 	20
scalar Network600.node510 	query_homogenity_rate 	33.333333333333
scalar Network600.node510 	qrecord_time 	12887.917679932
scalar Network600.node510 	discovery_resolution_rate 	33.333333333333
scalar Network600.node520 	rate_of_requesters 	1
scalar Network600.node520 	number_of_resources 	33000
scalar Network600.node520 	time_period 	2
scalar Network600.node520 	number_of_messages 	204
scalar Network600.node520 	discovery_latency 	3504
scalar Network600.node520 	number_of_desired_resources 	20
scalar Network600.node520 	query_homogenity_rate 	33.333333333333
scalar Network600.node520 	qrecord_time 	12925.57737807
scalar Network600.node520 	discovery_resolution_rate 	66.666666666667
scalar Network600.node570 	rate_of_requesters 	1
scalar Network600.node570 	number_of_resources 	33000
scalar Network600.node570 	time_period 	3
scalar Network600.node570 	number_of_messages 	127
scalar Network600.node570 	discovery_latency 	3960
scalar Network600.node570 	number_of_desired_resources 	20
scalar Network600.node570 	query_homogenity_rate 	33.333333333333
scalar Network600.node570 	qrecord_time 	12983.247486827
scalar Network600.node570 	discovery_resolution_rate 	33.333333333333
scalar Network600.node420 	rate_of_requesters 	1
scalar Network600.node420 	number_of_resources 	33000
scalar Network600.node420 	time_period 	2
scalar Network600.node420 	number_of_messages 	2
scalar Network600.node420 	discovery_latency 	4026
scalar Network600.node420 	number_of_desired_resources 	20
scalar Network600.node420 	query_homogenity_rate 	33.333333333333
scalar Network600.node420 	qrecord_time 	13200.177361372
scalar Network600.node420 	discovery_resolution_rate 	0
scalar Network600.node450 	rate_of_requesters 	1
scalar Network600.node450 	number_of_resources 	33000
scalar Network600.node450 	time_period 	3
scalar Network600.node450 	number_of_messages 	2
scalar Network600.node450 	discovery_latency 	4170
scalar Network600.node450 	number_of_desired_resources 	20
scalar Network600.node450 	query_homogenity_rate 	33.333333333333
scalar Network600.node450 	qrecord_time 	13257.367706458
scalar Network600.node450 	discovery_resolution_rate 	0
scalar Network600.node400 	rate_of_requesters 	1
scalar Network600.node400 	number_of_resources 	33000
scalar Network600.node400 	time_period 	4
scalar Network600.node400 	number_of_messages 	76
scalar Network600.node400 	discovery_latency 	3972
scalar Network600.node400 	number_of_desired_resources 	20
scalar Network600.node400 	query_homogenity_rate 	33.333333333333
scalar Network600.node400 	qrecord_time 	13615.77203265
scalar Network600.node400 	discovery_resolution_rate 	33.333333333333
scalar Network600.node530 	rate_of_requesters 	1
scalar Network600.node530 	number_of_resources 	33000
scalar Network600.node530 	time_period 	6
scalar Network600.node530 	number_of_messages 	2
scalar Network600.node530 	discovery_latency 	4134
scalar Network600.node530 	number_of_desired_resources 	20
scalar Network600.node530 	query_homogenity_rate 	33.333333333333
scalar Network600.node530 	qrecord_time 	13687.311559403
scalar Network600.node530 	discovery_resolution_rate 	0
scalar Network600.node10 	rate_of_requesters 	1
scalar Network600.node10 	number_of_resources 	33000
scalar Network600.node10 	time_period 	4
scalar Network600.node10 	number_of_messages 	2
scalar Network600.node10 	discovery_latency 	4014
scalar Network600.node10 	number_of_desired_resources 	20
scalar Network600.node10 	query_homogenity_rate 	33.333333333333
scalar Network600.node10 	qrecord_time 	13773.034965979
scalar Network600.node10 	discovery_resolution_rate 	0
scalar Network600.node530 	rate_of_requesters 	1
scalar Network600.node530 	number_of_resources 	33000
scalar Network600.node530 	time_period 	7
scalar Network600.node530 	number_of_messages 	7
scalar Network600.node530 	discovery_latency 	4026
scalar Network600.node530 	number_of_desired_resources 	20
scalar Network600.node530 	query_homogenity_rate 	33.333333333333
scalar Network600.node530 	qrecord_time 	13774.853632373
scalar Network600.node530 	discovery_resolution_rate 	33.333333333333
scalar Network600.node90 	rate_of_requesters 	1
scalar Network600.node90 	number_of_resources 	33000
scalar Network600.node90 	time_period 	3
scalar Network600.node90 	number_of_messages 	272
scalar Network600.node90 	discovery_latency 	3084
scalar Network600.node90 	number_of_desired_resources 	20
scalar Network600.node90 	query_homogenity_rate 	33.333333333333
scalar Network600.node90 	qrecord_time 	13801.480766124
scalar Network600.node90 	discovery_resolution_rate 	100
scalar Network600.node420 	rate_of_requesters 	1
scalar Network600.node420 	number_of_resources 	33000
scalar Network600.node420 	time_period 	3
scalar Network600.node420 	number_of_messages 	2
scalar Network600.node420 	discovery_latency 	4014
scalar Network600.node420 	number_of_desired_resources 	20
scalar Network600.node420 	query_homogenity_rate 	33.333333333333
scalar Network600.node420 	qrecord_time 	13808.752217381
scalar Network600.node420 	discovery_resolution_rate 	0
scalar Network600.node50 	rate_of_requesters 	1
scalar Network600.node50 	number_of_resources 	33000
scalar Network600.node50 	time_period 	4
scalar Network600.node50 	number_of_messages 	125
scalar Network600.node50 	discovery_latency 	3624
scalar Network600.node50 	number_of_desired_resources 	20
scalar Network600.node50 	query_homogenity_rate 	33.333333333333
scalar Network600.node50 	qrecord_time 	13824.411571589
scalar Network600.node50 	discovery_resolution_rate 	66.666666666667
scalar Network600.node130 	rate_of_requesters 	1
scalar Network600.node130 	number_of_resources 	33000
scalar Network600.node130 	time_period 	3
scalar Network600.node130 	number_of_messages 	206
scalar Network600.node130 	discovery_latency 	1824
scalar Network600.node130 	number_of_desired_resources 	20
scalar Network600.node130 	query_homogenity_rate 	33.333333333333
scalar Network600.node130 	qrecord_time 	13941.74197804
scalar Network600.node130 	discovery_resolution_rate 	100
scalar Network600.node360 	rate_of_requesters 	1
scalar Network600.node360 	number_of_resources 	33000
scalar Network600.node360 	time_period 	5
scalar Network600.node360 	number_of_messages 	175
scalar Network600.node360 	discovery_latency 	3804
scalar Network600.node360 	number_of_desired_resources 	20
scalar Network600.node360 	query_homogenity_rate 	33.333333333333
scalar Network600.node360 	qrecord_time 	14073.928736509
scalar Network600.node360 	discovery_resolution_rate 	66.666666666667
scalar Network600.node380 	rate_of_requesters 	1
scalar Network600.node380 	number_of_resources 	33000
scalar Network600.node380 	time_period 	2
scalar Network600.node380 	number_of_messages 	14
scalar Network600.node380 	discovery_latency 	3894
scalar Network600.node380 	number_of_desired_resources 	20
scalar Network600.node380 	query_homogenity_rate 	33.333333333333
scalar Network600.node380 	qrecord_time 	14140.067575189
scalar Network600.node380 	discovery_resolution_rate 	33.333333333333
scalar Network600.node580 	rate_of_requesters 	1
scalar Network600.node580 	number_of_resources 	33000
scalar Network600.node580 	time_period 	4
scalar Network600.node580 	number_of_messages 	79
scalar Network600.node580 	discovery_latency 	4332
scalar Network600.node580 	number_of_desired_resources 	20
scalar Network600.node580 	query_homogenity_rate 	33.333333333333
scalar Network600.node580 	qrecord_time 	14214.949314561
scalar Network600.node580 	discovery_resolution_rate 	33.333333333333
scalar Network600.node500 	rate_of_requesters 	1
scalar Network600.node500 	number_of_resources 	33000
scalar Network600.node500 	time_period 	3
scalar Network600.node500 	number_of_messages 	346
scalar Network600.node500 	discovery_latency 	3588
scalar Network600.node500 	number_of_desired_resources 	20
scalar Network600.node500 	query_homogenity_rate 	33.333333333333
scalar Network600.node500 	qrecord_time 	14438.294062874
scalar Network600.node500 	discovery_resolution_rate 	83.333333333333
scalar Network600.node440 	rate_of_requesters 	1
scalar Network600.node440 	number_of_resources 	33000
scalar Network600.node440 	time_period 	2
scalar Network600.node440 	number_of_messages 	296
scalar Network600.node440 	discovery_latency 	3870
scalar Network600.node440 	number_of_desired_resources 	20
scalar Network600.node440 	query_homogenity_rate 	33.333333333333
scalar Network600.node440 	qrecord_time 	14523.756032979
scalar Network600.node440 	discovery_resolution_rate 	50
scalar Network600.node70 	rate_of_requesters 	1
scalar Network600.node70 	number_of_resources 	33000
scalar Network600.node70 	time_period 	6
scalar Network600.node70 	number_of_messages 	44
scalar Network600.node70 	discovery_latency 	4062
scalar Network600.node70 	number_of_desired_resources 	20
scalar Network600.node70 	query_homogenity_rate 	33.333333333333
scalar Network600.node70 	qrecord_time 	14592.117049423
scalar Network600.node70 	discovery_resolution_rate 	33.333333333333
scalar Network600.node280 	rate_of_requesters 	1
scalar Network600.node280 	number_of_resources 	33000
scalar Network600.node280 	time_period 	2
scalar Network600.node280 	number_of_messages 	315
scalar Network600.node280 	discovery_latency 	3654
scalar Network600.node280 	number_of_desired_resources 	20
scalar Network600.node280 	query_homogenity_rate 	33.333333333333
scalar Network600.node280 	qrecord_time 	14755.07183559
scalar Network600.node280 	discovery_resolution_rate 	66.666666666667
scalar Network600.node20 	rate_of_requesters 	1
scalar Network600.node20 	number_of_resources 	33000
scalar Network600.node20 	time_period 	2
scalar Network600.node20 	number_of_messages 	236
scalar Network600.node20 	discovery_latency 	4170
scalar Network600.node20 	number_of_desired_resources 	20
scalar Network600.node20 	query_homogenity_rate 	33.333333333333
scalar Network600.node20 	qrecord_time 	14759.07480735
scalar Network600.node20 	discovery_resolution_rate 	50
scalar Network600.node380 	rate_of_requesters 	1
scalar Network600.node380 	number_of_resources 	33000
scalar Network600.node380 	time_period 	3
scalar Network600.node380 	number_of_messages 	312
scalar Network600.node380 	discovery_latency 	4122
scalar Network600.node380 	number_of_desired_resources 	20
scalar Network600.node380 	query_homogenity_rate 	33.333333333333
scalar Network600.node380 	qrecord_time 	14841.763291356
scalar Network600.node380 	discovery_resolution_rate 	50
scalar Network600.node290 	rate_of_requesters 	1
scalar Network600.node290 	number_of_resources 	33000
scalar Network600.node290 	time_period 	4
scalar Network600.node290 	number_of_messages 	181
scalar Network600.node290 	discovery_latency 	4086
scalar Network600.node290 	number_of_desired_resources 	20
scalar Network600.node290 	query_homogenity_rate 	33.333333333333
scalar Network600.node290 	qrecord_time 	15106.551095199
scalar Network600.node290 	discovery_resolution_rate 	50
scalar Network600.node140 	rate_of_requesters 	1
scalar Network600.node140 	number_of_resources 	33000
scalar Network600.node140 	time_period 	2
scalar Network600.node140 	number_of_messages 	342
scalar Network600.node140 	discovery_latency 	4002
scalar Network600.node140 	number_of_desired_resources 	20
scalar Network600.node140 	query_homogenity_rate 	33.333333333333
scalar Network600.node140 	qrecord_time 	15171.428020162
scalar Network600.node140 	discovery_resolution_rate 	83.333333333333
scalar Network600.node140 	rate_of_requesters 	1
scalar Network600.node140 	number_of_resources 	33000
scalar Network600.node140 	time_period 	3
scalar Network600.node140 	number_of_messages 	63
scalar Network600.node140 	discovery_latency 	3846
scalar Network600.node140 	number_of_desired_resources 	20
scalar Network600.node140 	query_homogenity_rate 	33.333333333333
scalar Network600.node140 	qrecord_time 	15173.544898776
scalar Network600.node140 	discovery_resolution_rate 	33.333333333333
scalar Network600.node250 	rate_of_requesters 	1
scalar Network600.node250 	number_of_resources 	33000
scalar Network600.node250 	time_period 	2
scalar Network600.node250 	number_of_messages 	57
scalar Network600.node250 	discovery_latency 	3918
scalar Network600.node250 	number_of_desired_resources 	20
scalar Network600.node250 	query_homogenity_rate 	33.333333333333
scalar Network600.node250 	qrecord_time 	15259.078214518
scalar Network600.node250 	discovery_resolution_rate 	66.666666666667
scalar Network600.node110 	rate_of_requesters 	1
scalar Network600.node110 	number_of_resources 	33000
scalar Network600.node110 	time_period 	4
scalar Network600.node110 	number_of_messages 	252
scalar Network600.node110 	discovery_latency 	3990
scalar Network600.node110 	number_of_desired_resources 	20
scalar Network600.node110 	query_homogenity_rate 	33.333333333333
scalar Network600.node110 	qrecord_time 	15268.457829225
scalar Network600.node110 	discovery_resolution_rate 	50
scalar Network600.node290 	rate_of_requesters 	1
scalar Network600.node290 	number_of_resources 	33000
scalar Network600.node290 	time_period 	5
scalar Network600.node290 	number_of_messages 	332
scalar Network600.node290 	discovery_latency 	3996
scalar Network600.node290 	number_of_desired_resources 	20
scalar Network600.node290 	query_homogenity_rate 	33.333333333333
scalar Network600.node290 	qrecord_time 	15333.540860333
scalar Network600.node290 	discovery_resolution_rate 	33.333333333333
scalar Network600.node70 	rate_of_requesters 	1
scalar Network600.node70 	number_of_resources 	33000
scalar Network600.node70 	time_period 	7
scalar Network600.node70 	number_of_messages 	305
scalar Network600.node70 	discovery_latency 	3900
scalar Network600.node70 	number_of_desired_resources 	20
scalar Network600.node70 	query_homogenity_rate 	33.333333333333
scalar Network600.node70 	qrecord_time 	15470.881264918
[...]
scalar Network600.node210 	discovery_resolution_rate 	83.333333333333
scalar Network600.node310 	rate_of_requesters 	1
scalar Network600.node310 	number_of_resources 	33000
scalar Network600.node310 	time_period 	7
scalar Network600.node310 	number_of_messages 	220
scalar Network600.node310 	discovery_latency 	2328
scalar Network600.node310 	number_of_desired_resources 	20
scalar Network600.node310 	query_homogenity_rate 	33.333333333333
scalar Network600.node310 	qrecord_time 	47805.065422931
scalar Network600.node310 	discovery_resolution_rate 	100
scalar Network600.node210 	rate_of_requesters 	1
scalar Network600.node210 	number_of_resources 	33000
scalar Network600.node210 	time_period 	9
scalar Network600.node210 	number_of_messages 	112
scalar Network600.node210 	discovery_latency 	1164
scalar Network600.node210 	number_of_desired_resources 	20
scalar Network600.node210 	query_homogenity_rate 	33.333333333333
scalar Network600.node210 	qrecord_time 	48247.48316939
scalar Network600.node210 	discovery_resolution_rate 	100
scalar Network600.node40 	rate_of_requesters 	1
scalar Network600.node40 	number_of_resources 	33000
scalar Network600.node40 	time_period 	10
scalar Network600.node40 	number_of_messages 	105
scalar Network600.node40 	discovery_latency 	1056
scalar Network600.node40 	number_of_desired_resources 	20
scalar Network600.node40 	query_homogenity_rate 	33.333333333333
scalar Network600.node40 	qrecord_time 	48362.426113726
scalar Network600.node40 	discovery_resolution_rate 	100
scalar Network600.node210 	rate_of_requesters 	1
scalar Network600.node210 	number_of_resources 	33000
scalar Network600.node210 	time_period 	10
scalar Network600.node210 	number_of_messages 	105
scalar Network600.node210 	discovery_latency 	1332
scalar Network600.node210 	number_of_desired_resources 	20
scalar Network600.node210 	query_homogenity_rate 	33.333333333333
scalar Network600.node210 	qrecord_time 	48745.870851131
scalar Network600.node210 	discovery_resolution_rate 	100
scalar Network600.node590 	rate_of_requesters 	1
scalar Network600.node590 	number_of_resources 	33000
scalar Network600.node590 	time_period 	10
scalar Network600.node590 	number_of_messages 	117
scalar Network600.node590 	discovery_latency 	1392
scalar Network600.node590 	number_of_desired_resources 	20
scalar Network600.node590 	query_homogenity_rate 	33.333333333333
scalar Network600.node590 	qrecord_time 	48896.286735882
scalar Network600.node590 	discovery_resolution_rate 	100
scalar Network600.node120 	rate_of_requesters 	1
scalar Network600.node120 	number_of_resources 	33000
scalar Network600.node120 	time_period 	10
scalar Network600.node120 	number_of_messages 	347
scalar Network600.node120 	discovery_latency 	4038
scalar Network600.node120 	number_of_desired_resources 	20
scalar Network600.node120 	query_homogenity_rate 	33.333333333333
scalar Network600.node120 	qrecord_time 	48966.785530471
scalar Network600.node120 	discovery_resolution_rate 	83.333333333333
scalar Network600.node160 	rate_of_requesters 	1
scalar Network600.node160 	number_of_resources 	33000
scalar Network600.node160 	time_period 	9
scalar Network600.node160 	number_of_messages 	73
scalar Network600.node160 	discovery_latency 	888
scalar Network600.node160 	number_of_desired_resources 	20
scalar Network600.node160 	query_homogenity_rate 	33.333333333333
scalar Network600.node160 	qrecord_time 	49006.344103954
scalar Network600.node160 	discovery_resolution_rate 	100
scalar Network600.node280 	rate_of_requesters 	1
scalar Network600.node280 	number_of_resources 	33000
scalar Network600.node280 	time_period 	6
scalar Network600.node280 	number_of_messages 	91
scalar Network600.node280 	discovery_latency 	1524
scalar Network600.node280 	number_of_desired_resources 	20
scalar Network600.node280 	query_homogenity_rate 	33.333333333333
scalar Network600.node280 	qrecord_time 	49177.129938691
scalar Network600.node280 	discovery_resolution_rate 	100
scalar Network600.node40 	rate_of_requesters 	1
scalar Network600.node40 	number_of_resources 	33000
scalar Network600.node40 	time_period 	9
scalar Network600.node40 	number_of_messages 	191
scalar Network600.node40 	discovery_latency 	2238
scalar Network600.node40 	number_of_desired_resources 	20
scalar Network600.node40 	query_homogenity_rate 	33.333333333333
scalar Network600.node40 	qrecord_time 	49534.208724866
scalar Network600.node40 	discovery_resolution_rate 	100
scalar Network600.node310 	rate_of_requesters 	1
scalar Network600.node310 	number_of_resources 	33000
scalar Network600.node310 	time_period 	9
scalar Network600.node310 	number_of_messages 	102
scalar Network600.node310 	discovery_latency 	1440
scalar Network600.node310 	number_of_desired_resources 	20
scalar Network600.node310 	query_homogenity_rate 	33.333333333333
scalar Network600.node310 	qrecord_time 	49957.623841877
scalar Network600.node310 	discovery_resolution_rate 	100
scalar Network600.node250 	rate_of_requesters 	1
scalar Network600.node250 	number_of_resources 	33000
scalar Network600.node250 	time_period 	7
scalar Network600.node250 	number_of_messages 	143
scalar Network600.node250 	discovery_latency 	1836
scalar Network600.node250 	number_of_desired_resources 	20
scalar Network600.node250 	query_homogenity_rate 	33.333333333333
scalar Network600.node250 	qrecord_time 	50180.833764081
scalar Network600.node250 	discovery_resolution_rate 	100
scalar Network600.node280 	rate_of_requesters 	1
scalar Network600.node280 	number_of_resources 	33000
scalar Network600.node280 	time_period 	5
scalar Network600.node280 	number_of_messages 	161
scalar Network600.node280 	discovery_latency 	2766
scalar Network600.node280 	number_of_desired_resources 	20
scalar Network600.node280 	query_homogenity_rate 	33.333333333333
scalar Network600.node280 	qrecord_time 	50246.724346046
scalar Network600.node280 	discovery_resolution_rate 	100
scalar Network600.node200 	rate_of_requesters 	1
scalar Network600.node200 	number_of_resources 	33000
scalar Network600.node200 	time_period 	9
scalar Network600.node200 	number_of_messages 	153
scalar Network600.node200 	discovery_latency 	2496
scalar Network600.node200 	number_of_desired_resources 	20
scalar Network600.node200 	query_homogenity_rate 	33.333333333333
scalar Network600.node200 	qrecord_time 	50427.916074446
scalar Network600.node200 	discovery_resolution_rate 	100
scalar Network600.node500 	rate_of_requesters 	1
scalar Network600.node500 	number_of_resources 	33000
scalar Network600.node500 	time_period 	10
scalar Network600.node500 	number_of_messages 	193
scalar Network600.node500 	discovery_latency 	1572
scalar Network600.node500 	number_of_desired_resources 	20
scalar Network600.node500 	query_homogenity_rate 	33.333333333333
scalar Network600.node500 	qrecord_time 	50665.151911476
scalar Network600.node500 	discovery_resolution_rate 	100
scalar Network600.node490 	rate_of_requesters 	1
scalar Network600.node490 	number_of_resources 	33000
scalar Network600.node490 	time_period 	8
scalar Network600.node490 	number_of_messages 	124
scalar Network600.node490 	discovery_latency 	1938
scalar Network600.node490 	number_of_desired_resources 	20
scalar Network600.node490 	query_homogenity_rate 	33.333333333333
scalar Network600.node490 	qrecord_time 	51179.74121105
scalar Network600.node490 	discovery_resolution_rate 	100
scalar Network600.node0 	rate_of_requesters 	1
scalar Network600.node0 	number_of_resources 	33000
scalar Network600.node0 	time_period 	10
scalar Network600.node0 	number_of_messages 	108
scalar Network600.node0 	discovery_latency 	1452
scalar Network600.node0 	number_of_desired_resources 	20
scalar Network600.node0 	query_homogenity_rate 	33.333333333333
scalar Network600.node0 	qrecord_time 	51839.664667872
scalar Network600.node0 	discovery_resolution_rate 	100
scalar Network600.node60 	rate_of_requesters 	1
scalar Network600.node60 	number_of_resources 	33000
scalar Network600.node60 	time_period 	7
scalar Network600.node60 	number_of_messages 	136
scalar Network600.node60 	discovery_latency 	2136
scalar Network600.node60 	number_of_desired_resources 	20
scalar Network600.node60 	query_homogenity_rate 	33.333333333333
scalar Network600.node60 	qrecord_time 	52097.64589855
scalar Network600.node60 	discovery_resolution_rate 	100
scalar Network600.node500 	rate_of_requesters 	1
scalar Network600.node500 	number_of_resources 	33000
scalar Network600.node500 	time_period 	9
scalar Network600.node500 	number_of_messages 	279
scalar Network600.node500 	discovery_latency 	3492
scalar Network600.node500 	number_of_desired_resources 	20
scalar Network600.node500 	query_homogenity_rate 	33.333333333333
scalar Network600.node500 	qrecord_time 	52172.357143862
scalar Network600.node500 	discovery_resolution_rate 	83.333333333333
scalar Network600.node490 	rate_of_requesters 	1
scalar Network600.node490 	number_of_resources 	33000
scalar Network600.node490 	time_period 	9
scalar Network600.node490 	number_of_messages 	207
scalar Network600.node490 	discovery_latency 	2292
scalar Network600.node490 	number_of_desired_resources 	20
scalar Network600.node490 	query_homogenity_rate 	33.333333333333
scalar Network600.node490 	qrecord_time 	52178.090344053
scalar Network600.node490 	discovery_resolution_rate 	100
scalar Network600.node480 	rate_of_requesters 	1
scalar Network600.node480 	number_of_resources 	33000
scalar Network600.node480 	time_period 	10
scalar Network600.node480 	number_of_messages 	228
scalar Network600.node480 	discovery_latency 	3810
scalar Network600.node480 	number_of_desired_resources 	20
scalar Network600.node480 	query_homogenity_rate 	33.333333333333
scalar Network600.node480 	qrecord_time 	52257.424473476
scalar Network600.node480 	discovery_resolution_rate 	100
scalar Network600.node430 	rate_of_requesters 	1
scalar Network600.node430 	number_of_resources 	33000
scalar Network600.node430 	time_period 	10
scalar Network600.node430 	number_of_messages 	271
scalar Network600.node430 	discovery_latency 	2184
scalar Network600.node430 	number_of_desired_resources 	20
scalar Network600.node430 	query_homogenity_rate 	33.333333333333
scalar Network600.node430 	qrecord_time 	52289.168222125
scalar Network600.node430 	discovery_resolution_rate 	100
scalar Network600.node280 	rate_of_requesters 	1
scalar Network600.node280 	number_of_resources 	33000
scalar Network600.node280 	time_period 	7
scalar Network600.node280 	number_of_messages 	148
scalar Network600.node280 	discovery_latency 	1896
scalar Network600.node280 	number_of_desired_resources 	20
scalar Network600.node280 	query_homogenity_rate 	33.333333333333
scalar Network600.node280 	qrecord_time 	52420.440045049
scalar Network600.node280 	discovery_resolution_rate 	100
scalar Network600.node320 	rate_of_requesters 	1
scalar Network600.node320 	number_of_resources 	33000
scalar Network600.node320 	time_period 	10
scalar Network600.node320 	number_of_messages 	70
scalar Network600.node320 	discovery_latency 	978
scalar Network600.node320 	number_of_desired_resources 	20
scalar Network600.node320 	query_homogenity_rate 	33.333333333333
scalar Network600.node320 	qrecord_time 	52472.644720176
scalar Network600.node320 	discovery_resolution_rate 	100
scalar Network600.node320 	rate_of_requesters 	1
scalar Network600.node320 	number_of_resources 	33000
scalar Network600.node320 	time_period 	9
scalar Network600.node320 	number_of_messages 	102
scalar Network600.node320 	discovery_latency 	1620
scalar Network600.node320 	number_of_desired_resources 	20
scalar Network600.node320 	query_homogenity_rate 	33.333333333333
scalar Network600.node320 	qrecord_time 	52879.196315671
scalar Network600.node320 	discovery_resolution_rate 	100
scalar Network600.node280 	rate_of_requesters 	1
scalar Network600.node280 	number_of_resources 	33000
scalar Network600.node280 	time_period 	8
scalar Network600.node280 	number_of_messages 	174
scalar Network600.node280 	discovery_latency 	1608
scalar Network600.node280 	number_of_desired_resources 	20
scalar Network600.node280 	query_homogenity_rate 	33.333333333333
scalar Network600.node280 	qrecord_time 	53259.36624319
scalar Network600.node280 	discovery_resolution_rate 	100
scalar Network600.node200 	rate_of_requesters 	1
scalar Network600.node200 	number_of_resources 	33000
scalar Network600.node200 	time_period 	10
scalar Network600.node200 	number_of_messages 	271
scalar Network600.node200 	discovery_latency 	2454
scalar Network600.node200 	number_of_desired_resources 	20
scalar Network600.node200 	query_homogenity_rate 	33.333333333333
scalar Network600.node200 	qrecord_time 	53502.360210375
scalar Network600.node200 	discovery_resolution_rate 	100
scalar Network600.node370 	rate_of_requesters 	1
scalar Network600.node370 	number_of_resources 	33000
scalar Network600.node370 	time_period 	10
scalar Network600.node370 	number_of_messages 	27
scalar Network600.node370 	discovery_latency 	324
scalar Network600.node370 	number_of_desired_resources 	20
scalar Network600.node370 	query_homogenity_rate 	33.333333333333
scalar Network600.node370 	qrecord_time 	53888.263998922
scalar Network600.node370 	discovery_resolution_rate 	100
scalar Network600.node160 	rate_of_requesters 	1
scalar Network600.node160 	number_of_resources 	33000
scalar Network600.node160 	time_period 	10
scalar Network600.node160 	number_of_messages 	69
scalar Network600.node160 	discovery_latency 	888
scalar Network600.node160 	number_of_desired_resources 	20
scalar Network600.node160 	query_homogenity_rate 	33.333333333333
scalar Network600.node160 	qrecord_time 	54913.865247897
scalar Network600.node160 	discovery_resolution_rate 	100
scalar Network600.node280 	rate_of_requesters 	1
scalar Network600.node280 	number_of_resources 	33000
scalar Network600.node280 	time_period 	9
scalar Network600.node280 	number_of_messages 	85
scalar Network600.node280 	discovery_latency 	1236
scalar Network600.node280 	number_of_desired_resources 	20
scalar Network600.node280 	query_homogenity_rate 	33.333333333333
scalar Network600.node280 	qrecord_time 	55408.536778137
scalar Network600.node280 	discovery_resolution_rate 	100
scalar Network600.node60 	rate_of_requesters 	1
scalar Network600.node60 	number_of_resources 	33000
scalar Network600.node60 	time_period 	8
scalar Network600.node60 	number_of_messages 	38
scalar Network600.node60 	discovery_latency 	600
scalar Network600.node60 	number_of_desired_resources 	20
scalar Network600.node60 	query_homogenity_rate 	33.333333333333
scalar Network600.node60 	qrecord_time 	55716.863410502
scalar Network600.node60 	discovery_resolution_rate 	100
scalar Network600.node250 	rate_of_requesters 	1
scalar Network600.node250 	number_of_resources 	33000
scalar Network600.node250 	time_period 	8
scalar Network600.node250 	number_of_messages 	50
scalar Network600.node250 	discovery_latency 	876
scalar Network600.node250 	number_of_desired_resources 	20
scalar Network600.node250 	query_homogenity_rate 	33.333333333333
scalar Network600.node250 	qrecord_time 	56154.568053162
scalar Network600.node250 	discovery_resolution_rate 	100
scalar Network600.node350 	rate_of_requesters 	1
scalar Network600.node350 	number_of_resources 	33000
scalar Network600.node350 	time_period 	10
scalar Network600.node350 	number_of_messages 	52
scalar Network600.node350 	discovery_latency 	564
scalar Network600.node350 	number_of_desired_resources 	20
scalar Network600.node350 	query_homogenity_rate 	33.333333333333
scalar Network600.node350 	qrecord_time 	56977.092551547
scalar Network600.node350 	discovery_resolution_rate 	100
scalar Network600.node520 	rate_of_requesters 	1
scalar Network600.node520 	number_of_resources 	33000
scalar Network600.node520 	time_period 	9
scalar Network600.node520 	number_of_messages 	92
scalar Network600.node520 	discovery_latency 	912
scalar Network600.node520 	number_of_desired_resources 	20
scalar Network600.node520 	query_homogenity_rate 	33.333333333333
scalar Network600.node520 	qrecord_time 	57697.279121929
scalar Network600.node520 	discovery_resolution_rate 	100
scalar Network600.node280 	rate_of_requesters 	1
scalar Network600.node280 	number_of_resources 	33000
scalar Network600.node280 	time_period 	10
scalar Network600.node280 	number_of_messages 	89
scalar Network600.node280 	discovery_latency 	1140
scalar Network600.node280 	number_of_desired_resources 	20
scalar Network600.node280 	query_homogenity_rate 	33.333333333333
scalar Network600.node280 	qrecord_time 	57822.807949334
scalar Network600.node280 	discovery_resolution_rate 	100
scalar Network600.node310 	rate_of_requesters 	1
scalar Network600.node310 	number_of_resources 	33000
scalar Network600.node310 	time_period 	10
scalar Network600.node310 	number_of_messages 	66
scalar Network600.node310 	discovery_latency 	1020
scalar Network600.node310 	number_of_desired_resources 	20
scalar Network600.node310 	query_homogenity_rate 	33.333333333333
scalar Network600.node310 	qrecord_time 	58994.150140306
scalar Network600.node310 	discovery_resolution_rate 	100
scalar Network600.node250 	rate_of_requesters 	1
scalar Network600.node250 	number_of_resources 	33000
scalar Network600.node250 	time_period 	9
scalar Network600.node250 	number_of_messages 	57
scalar Network600.node250 	discovery_latency 	720
scalar Network600.node250 	number_of_desired_resources 	20
scalar Network600.node250 	query_homogenity_rate 	33.333333333333
scalar Network600.node250 	qrecord_time 	60311.870304852
scalar Network600.node250 	discovery_resolution_rate 	100
scalar Network600.node60 	rate_of_requesters 	1
scalar Network600.node60 	number_of_resources 	33000
scalar Network600.node60 	time_period 	9
scalar Network600.node60 	number_of_messages 	64
scalar Network600.node60 	discovery_latency 	756
scalar Network600.node60 	number_of_desired_resources 	20
scalar Network600.node60 	query_homogenity_rate 	33.333333333333
scalar Network600.node60 	qrecord_time 	60512.424678767
scalar Network600.node60 	discovery_resolution_rate 	100
scalar Network600.node250 	rate_of_requesters 	1
scalar Network600.node250 	number_of_resources 	33000
scalar Network600.node250 	time_period 	10
scalar Network600.node250 	number_of_messages 	50
scalar Network600.node250 	discovery_latency 	708.00000000001
scalar Network600.node250 	number_of_desired_resources 	20
scalar Network600.node250 	query_homogenity_rate 	33.333333333333
scalar Network600.node250 	qrecord_time 	61330.10340847
scalar Network600.node250 	discovery_resolution_rate 	100
scalar Network600.node60 	rate_of_requesters 	1
scalar Network600.node60 	number_of_resources 	33000
scalar Network600.node60 	time_period 	10
scalar Network600.node60 	number_of_messages 	24
scalar Network600.node60 	discovery_latency 	318
scalar Network600.node60 	number_of_desired_resources 	20
scalar Network600.node60 	query_homogenity_rate 	33.333333333333
scalar Network600.node60 	qrecord_time 	61584.381283157
scalar Network600.node60 	discovery_resolution_rate 	100
scalar Network600.node490 	rate_of_requesters 	1
scalar Network600.node490 	number_of_resources 	33000
scalar Network600.node490 	time_period 	10
scalar Network600.node490 	number_of_messages 	57
scalar Network600.node490 	discovery_latency 	720
scalar Network600.node490 	number_of_desired_resources 	20
scalar Network600.node490 	query_homogenity_rate 	33.333333333333
scalar Network600.node490 	qrecord_time 	62415.453632044
scalar Network600.node490 	discovery_resolution_rate 	100
scalar Network600.node520 	rate_of_requesters 	1
scalar Network600.node520 	number_of_resources 	33000
scalar Network600.node520 	time_period 	10
scalar Network600.node520 	number_of_messages 	33
scalar Network600.node520 	discovery_latency 	384
scalar Network600.node520 	number_of_desired_resources 	20
scalar Network600.node520 	query_homogenity_rate 	33.333333333333
scalar Network600.node520 	qrecord_time 	64848.04792215
scalar Network600.node520 	discovery_resolution_rate 	100
