version 2
run net600-2-20150624-23:36:44-17749
attr as 1
attr configname net600
attr datetime 20150624-23:36:44
attr dnor 20
attr experiment net600
attr inifile omnetpp.ini
attr iterationvars "$rhdrq=3, $dnor=20, $as=1"
attr iterationvars2 "$rhdrq=3, $dnor=20, $as=1, $repetition=2"
attr measurement "$rhdrq=3, $dnor=20, $as=1"
attr network Network600
attr processid 17749
attr repetition 2
attr replication #2
attr resultdir results
attr rhdrq 3
attr runnumber 2
attr seedset 2

scalar . 	as 	1
scalar . 	dnor 	20
scalar . 	rhdrq 	3
scalar Network600.node60 	rate_of_requesters 	1
scalar Network600.node60 	number_of_resources 	33000
scalar Network600.node60 	time_period 	1
scalar Network600.node60 	number_of_messages 	27
scalar Network600.node60 	discovery_latency 	384
scalar Network600.node60 	number_of_desired_resources 	20
scalar Network600.node60 	query_homogenity_rate 	33.333333333333
scalar Network600.node60 	qrecord_time 	5116
scalar Network600.node60 	discovery_resolution_rate 	100
scalar Network600.node190 	rate_of_requesters 	1
scalar Network600.node190 	number_of_resources 	33000
scalar Network600.node190 	time_period 	1
scalar Network600.node190 	number_of_messages 	51
scalar Network600.node190 	discovery_latency 	432
scalar Network600.node190 	number_of_desired_resources 	20
scalar Network600.node190 	query_homogenity_rate 	33.333333333333
scalar Network600.node190 	qrecord_time 	5140
scalar Network600.node190 	discovery_resolution_rate 	100
scalar Network600.node580 	rate_of_requesters 	1
scalar Network600.node580 	number_of_resources 	33000
scalar Network600.node580 	time_period 	1
scalar Network600.node580 	number_of_messages 	42
scalar Network600.node580 	discovery_latency 	3540
scalar Network600.node580 	number_of_desired_resources 	20
scalar Network600.node580 	query_homogenity_rate 	33.333333333333
scalar Network600.node580 	qrecord_time 	8290
scalar Network600.node580 	discovery_resolution_rate 	66.666666666667
scalar Network600.node10 	rate_of_requesters 	1
scalar Network600.node10 	number_of_resources 	33000
scalar Network600.node10 	time_period 	1
scalar Network600.node10 	number_of_messages 	15
scalar Network600.node10 	discovery_latency 	3660
scalar Network600.node10 	number_of_desired_resources 	20
scalar Network600.node10 	query_homogenity_rate 	33.333333333333
scalar Network600.node10 	qrecord_time 	8350
scalar Network600.node10 	discovery_resolution_rate 	66.666666666667
scalar Network600.node180 	rate_of_requesters 	1
scalar Network600.node180 	number_of_resources 	33000
scalar Network600.node180 	time_period 	1
scalar Network600.node180 	number_of_messages 	27
scalar Network600.node180 	discovery_latency 	3696
scalar Network600.node180 	number_of_desired_resources 	20
scalar Network600.node180 	query_homogenity_rate 	33.333333333333
scalar Network600.node180 	qrecord_time 	8404
scalar Network600.node180 	discovery_resolution_rate 	66.666666666667
scalar Network600.node460 	rate_of_requesters 	1
scalar Network600.node460 	number_of_resources 	33000
scalar Network600.node460 	time_period 	1
scalar Network600.node460 	number_of_messages 	29
scalar Network600.node460 	discovery_latency 	3756
scalar Network600.node460 	number_of_desired_resources 	20
scalar Network600.node460 	query_homogenity_rate 	33.333333333333
scalar Network600.node460 	qrecord_time 	8482
scalar Network600.node460 	discovery_resolution_rate 	66.666666666667
scalar Network600.node310 	rate_of_requesters 	1
scalar Network600.node310 	number_of_resources 	33000
scalar Network600.node310 	time_period 	1
scalar Network600.node310 	number_of_messages 	6
scalar Network600.node310 	discovery_latency 	3888
scalar Network600.node310 	number_of_desired_resources 	20
scalar Network600.node310 	query_homogenity_rate 	33.333333333333
scalar Network600.node310 	qrecord_time 	8650
scalar Network600.node310 	discovery_resolution_rate 	33.333333333333
scalar Network600.node500 	rate_of_requesters 	1
scalar Network600.node500 	number_of_resources 	33000
scalar Network600.node500 	time_period 	1
scalar Network600.node500 	number_of_messages 	8
scalar Network600.node500 	discovery_latency 	4020
scalar Network600.node500 	number_of_desired_resources 	20
scalar Network600.node500 	query_homogenity_rate 	33.333333333333
scalar Network600.node500 	qrecord_time 	8692
scalar Network600.node500 	discovery_resolution_rate 	33.333333333333
scalar Network600.node440 	rate_of_requesters 	1
scalar Network600.node440 	number_of_resources 	33000
scalar Network600.node440 	time_period 	1
scalar Network600.node440 	number_of_messages 	11
scalar Network600.node440 	discovery_latency 	4008
scalar Network600.node440 	number_of_desired_resources 	20
scalar Network600.node440 	query_homogenity_rate 	33.333333333333
scalar Network600.node440 	qrecord_time 	8740
scalar Network600.node440 	discovery_resolution_rate 	66.666666666667
scalar Network600.node370 	rate_of_requesters 	1
scalar Network600.node370 	number_of_resources 	33000
scalar Network600.node370 	time_period 	1
scalar Network600.node370 	number_of_messages 	4
scalar Network600.node370 	discovery_latency 	3996
scalar Network600.node370 	number_of_desired_resources 	20
scalar Network600.node370 	query_homogenity_rate 	33.333333333333
scalar Network600.node370 	qrecord_time 	8740
scalar Network600.node370 	discovery_resolution_rate 	33.333333333333
scalar Network600.node530 	rate_of_requesters 	1
scalar Network600.node530 	number_of_resources 	33000
scalar Network600.node530 	time_period 	1
scalar Network600.node530 	number_of_messages 	12
scalar Network600.node530 	discovery_latency 	4056
scalar Network600.node530 	number_of_desired_resources 	20
scalar Network600.node530 	query_homogenity_rate 	33.333333333333
scalar Network600.node530 	qrecord_time 	8746
scalar Network600.node530 	discovery_resolution_rate 	33.333333333333
scalar Network600.node550 	rate_of_requesters 	1
scalar Network600.node550 	number_of_resources 	33000
scalar Network600.node550 	time_period 	1
scalar Network600.node550 	number_of_messages 	17
scalar Network600.node550 	discovery_latency 	3996
scalar Network600.node550 	number_of_desired_resources 	20
scalar Network600.node550 	query_homogenity_rate 	33.333333333333
scalar Network600.node550 	qrecord_time 	8764
scalar Network600.node550 	discovery_resolution_rate 	33.333333333333
scalar Network600.node330 	rate_of_requesters 	1
scalar Network600.node330 	number_of_resources 	33000
scalar Network600.node330 	time_period 	1
scalar Network600.node330 	number_of_messages 	8
scalar Network600.node330 	discovery_latency 	4104
scalar Network600.node330 	number_of_desired_resources 	20
scalar Network600.node330 	query_homogenity_rate 	33.333333333333
scalar Network600.node330 	qrecord_time 	8770
scalar Network600.node330 	discovery_resolution_rate 	33.333333333333
scalar Network600.node400 	rate_of_requesters 	1
scalar Network600.node400 	number_of_resources 	33000
scalar Network600.node400 	time_period 	1
scalar Network600.node400 	number_of_messages 	10
scalar Network600.node400 	discovery_latency 	4080
scalar Network600.node400 	number_of_desired_resources 	20
scalar Network600.node400 	query_homogenity_rate 	33.333333333333
scalar Network600.node400 	qrecord_time 	8806
scalar Network600.node400 	discovery_resolution_rate 	33.333333333333
scalar Network600.node80 	rate_of_requesters 	1
scalar Network600.node80 	number_of_resources 	33000
scalar Network600.node80 	time_period 	1
scalar Network600.node80 	number_of_messages 	5
scalar Network600.node80 	discovery_latency 	4104
scalar Network600.node80 	number_of_desired_resources 	20
scalar Network600.node80 	query_homogenity_rate 	33.333333333333
scalar Network600.node80 	qrecord_time 	8818
scalar Network600.node80 	discovery_resolution_rate 	33.333333333333
scalar Network600.node220 	rate_of_requesters 	1
scalar Network600.node220 	number_of_resources 	33000
scalar Network600.node220 	time_period 	1
scalar Network600.node220 	number_of_messages 	185
scalar Network600.node220 	discovery_latency 	4128
scalar Network600.node220 	number_of_desired_resources 	20
scalar Network600.node220 	query_homogenity_rate 	33.333333333333
scalar Network600.node220 	qrecord_time 	8818
scalar Network600.node220 	discovery_resolution_rate 	50
scalar Network600.node340 	rate_of_requesters 	1
scalar Network600.node340 	number_of_resources 	33000
scalar Network600.node340 	time_period 	1
scalar Network600.node340 	number_of_messages 	14
scalar Network600.node340 	discovery_latency 	4104
scalar Network600.node340 	number_of_desired_resources 	20
scalar Network600.node340 	query_homogenity_rate 	33.333333333333
scalar Network600.node340 	qrecord_time 	8824
scalar Network600.node340 	discovery_resolution_rate 	66.666666666667
scalar Network600.node450 	rate_of_requesters 	1
scalar Network600.node450 	number_of_resources 	33000
scalar Network600.node450 	time_period 	1
scalar Network600.node450 	number_of_messages 	179
scalar Network600.node450 	discovery_latency 	4062
scalar Network600.node450 	number_of_desired_resources 	20
scalar Network600.node450 	query_homogenity_rate 	33.333333333333
scalar Network600.node450 	qrecord_time 	8830
scalar Network600.node450 	discovery_resolution_rate 	50
scalar Network600.node0 	rate_of_requesters 	1
scalar Network600.node0 	number_of_resources 	33000
scalar Network600.node0 	time_period 	1
scalar Network600.node0 	number_of_messages 	6
scalar Network600.node0 	discovery_latency 	4092
scalar Network600.node0 	number_of_desired_resources 	20
scalar Network600.node0 	query_homogenity_rate 	33.333333333333
scalar Network600.node0 	qrecord_time 	8830
scalar Network600.node0 	discovery_resolution_rate 	33.333333333333
scalar Network600.node470 	rate_of_requesters 	1
scalar Network600.node470 	number_of_resources 	33000
scalar Network600.node470 	time_period 	1
scalar Network600.node470 	number_of_messages 	4
scalar Network600.node470 	discovery_latency 	4056
scalar Network600.node470 	number_of_desired_resources 	20
scalar Network600.node470 	query_homogenity_rate 	33.333333333333
scalar Network600.node470 	qrecord_time 	8848
scalar Network600.node470 	discovery_resolution_rate 	33.333333333333
scalar Network600.node350 	rate_of_requesters 	1
scalar Network600.node350 	number_of_resources 	33000
scalar Network600.node350 	time_period 	1
scalar Network600.node350 	number_of_messages 	204
scalar Network600.node350 	discovery_latency 	4092
scalar Network600.node350 	number_of_desired_resources 	20
scalar Network600.node350 	query_homogenity_rate 	33.333333333333
scalar Network600.node350 	qrecord_time 	8854
scalar Network600.node350 	discovery_resolution_rate 	50
scalar Network600.node590 	rate_of_requesters 	1
scalar Network600.node590 	number_of_resources 	33000
scalar Network600.node590 	time_period 	1
scalar Network600.node590 	number_of_messages 	9
scalar Network600.node590 	discovery_latency 	4140
scalar Network600.node590 	number_of_desired_resources 	20
scalar Network600.node590 	query_homogenity_rate 	33.333333333333
scalar Network600.node590 	qrecord_time 	8872
scalar Network600.node590 	discovery_resolution_rate 	33.333333333333
scalar Network600.node70 	rate_of_requesters 	1
scalar Network600.node70 	number_of_resources 	33000
scalar Network600.node70 	time_period 	1
scalar Network600.node70 	number_of_messages 	34
scalar Network600.node70 	discovery_latency 	4182
scalar Network600.node70 	number_of_desired_resources 	20
scalar Network600.node70 	query_homogenity_rate 	33.333333333333
scalar Network600.node70 	qrecord_time 	8878
scalar Network600.node70 	discovery_resolution_rate 	33.333333333333
scalar Network600.node480 	rate_of_requesters 	1
scalar Network600.node480 	number_of_resources 	33000
scalar Network600.node480 	time_period 	1
scalar Network600.node480 	number_of_messages 	203
scalar Network600.node480 	discovery_latency 	4152
scalar Network600.node480 	number_of_desired_resources 	20
scalar Network600.node480 	query_homogenity_rate 	33.333333333333
scalar Network600.node480 	qrecord_time 	8884
scalar Network600.node480 	discovery_resolution_rate 	83.333333333333
scalar Network600.node520 	rate_of_requesters 	1
scalar Network600.node520 	number_of_resources 	33000
scalar Network600.node520 	time_period 	1
scalar Network600.node520 	number_of_messages 	173
scalar Network600.node520 	discovery_latency 	4206
scalar Network600.node520 	number_of_desired_resources 	20
scalar Network600.node520 	query_homogenity_rate 	33.333333333333
scalar Network600.node520 	qrecord_time 	8902
scalar Network600.node520 	discovery_resolution_rate 	50
scalar Network600.node280 	rate_of_requesters 	1
scalar Network600.node280 	number_of_resources 	33000
scalar Network600.node280 	time_period 	1
scalar Network600.node280 	number_of_messages 	6
scalar Network600.node280 	discovery_latency 	4116
scalar Network600.node280 	number_of_desired_resources 	20
scalar Network600.node280 	query_homogenity_rate 	33.333333333333
scalar Network600.node280 	qrecord_time 	8914
scalar Network600.node280 	discovery_resolution_rate 	33.333333333333
scalar Network600.node570 	rate_of_requesters 	1
scalar Network600.node570 	number_of_resources 	33000
scalar Network600.node570 	time_period 	1
scalar Network600.node570 	number_of_messages 	9
scalar Network600.node570 	discovery_latency 	4254
scalar Network600.node570 	number_of_desired_resources 	20
scalar Network600.node570 	query_homogenity_rate 	33.333333333333
scalar Network600.node570 	qrecord_time 	8920
scalar Network600.node570 	discovery_resolution_rate 	33.333333333333
scalar Network600.node150 	rate_of_requesters 	1
scalar Network600.node150 	number_of_resources 	33000
scalar Network600.node150 	time_period 	1
scalar Network600.node150 	number_of_messages 	10
scalar Network600.node150 	discovery_latency 	4152
scalar Network600.node150 	number_of_desired_resources 	20
scalar Network600.node150 	query_homogenity_rate 	33.333333333333
scalar Network600.node150 	qrecord_time 	8932
scalar Network600.node150 	discovery_resolution_rate 	66.666666666667
scalar Network600.node200 	rate_of_requesters 	1
scalar Network600.node200 	number_of_resources 	33000
scalar Network600.node200 	time_period 	1
scalar Network600.node200 	number_of_messages 	4
scalar Network600.node200 	discovery_latency 	4194
scalar Network600.node200 	number_of_desired_resources 	20
scalar Network600.node200 	query_homogenity_rate 	33.333333333333
scalar Network600.node200 	qrecord_time 	8932
scalar Network600.node200 	discovery_resolution_rate 	33.333333333333
scalar Network600.node540 	rate_of_requesters 	1
scalar Network600.node540 	number_of_resources 	33000
scalar Network600.node540 	time_period 	1
scalar Network600.node540 	number_of_messages 	2
scalar Network600.node540 	discovery_latency 	4194
scalar Network600.node540 	number_of_desired_resources 	20
scalar Network600.node540 	query_homogenity_rate 	33.333333333333
scalar Network600.node540 	qrecord_time 	8932
scalar Network600.node540 	discovery_resolution_rate 	0
scalar Network600.node380 	rate_of_requesters 	1
scalar Network600.node380 	number_of_resources 	33000
scalar Network600.node380 	time_period 	1
scalar Network600.node380 	number_of_messages 	16
scalar Network600.node380 	discovery_latency 	4170
scalar Network600.node380 	number_of_desired_resources 	20
scalar Network600.node380 	query_homogenity_rate 	33.333333333333
scalar Network600.node380 	qrecord_time 	8962
scalar Network600.node380 	discovery_resolution_rate 	33.333333333333
scalar Network600.node120 	rate_of_requesters 	1
scalar Network600.node120 	number_of_resources 	33000
scalar Network600.node120 	time_period 	1
scalar Network600.node120 	number_of_messages 	199
scalar Network600.node120 	discovery_latency 	4224
scalar Network600.node120 	number_of_desired_resources 	20
scalar Network600.node120 	query_homogenity_rate 	33.333333333333
scalar Network600.node120 	qrecord_time 	8974
scalar Network600.node120 	discovery_resolution_rate 	50
scalar Network600.node140 	rate_of_requesters 	1
scalar Network600.node140 	number_of_resources 	33000
scalar Network600.node140 	time_period 	1
scalar Network600.node140 	number_of_messages 	13
scalar Network600.node140 	discovery_latency 	4230
scalar Network600.node140 	number_of_desired_resources 	20
scalar Network600.node140 	query_homogenity_rate 	33.333333333333
scalar Network600.node140 	qrecord_time 	8980
scalar Network600.node140 	discovery_resolution_rate 	33.333333333333
scalar Network600.node270 	rate_of_requesters 	1
scalar Network600.node270 	number_of_resources 	33000
scalar Network600.node270 	time_period 	1
scalar Network600.node270 	number_of_messages 	12
scalar Network600.node270 	discovery_latency 	4242
scalar Network600.node270 	number_of_desired_resources 	20
scalar Network600.node270 	query_homogenity_rate 	33.333333333333
scalar Network600.node270 	qrecord_time 	8992
scalar Network600.node270 	discovery_resolution_rate 	33.333333333333
scalar Network600.node560 	rate_of_requesters 	1
scalar Network600.node560 	number_of_resources 	33000
scalar Network600.node560 	time_period 	1
scalar Network600.node560 	number_of_messages 	12
scalar Network600.node560 	discovery_latency 	4242
scalar Network600.node560 	number_of_desired_resources 	20
scalar Network600.node560 	query_homogenity_rate 	33.333333333333
scalar Network600.node560 	qrecord_time 	8992
scalar Network600.node560 	discovery_resolution_rate 	33.333333333333
scalar Network600.node40 	rate_of_requesters 	1
scalar Network600.node40 	number_of_resources 	33000
scalar Network600.node40 	time_period 	1
scalar Network600.node40 	number_of_messages 	31
scalar Network600.node40 	discovery_latency 	4248
scalar Network600.node40 	number_of_desired_resources 	20
scalar Network600.node40 	query_homogenity_rate 	33.333333333333
scalar Network600.node40 	qrecord_time 	9004
scalar Network600.node40 	discovery_resolution_rate 	66.666666666667
scalar Network600.node20 	rate_of_requesters 	1
scalar Network600.node20 	number_of_resources 	33000
scalar Network600.node20 	time_period 	1
scalar Network600.node20 	number_of_messages 	12
scalar Network600.node20 	discovery_latency 	4326
scalar Network600.node20 	number_of_desired_resources 	20
scalar Network600.node20 	query_homogenity_rate 	33.333333333333
scalar Network600.node20 	qrecord_time 	9016
scalar Network600.node20 	discovery_resolution_rate 	66.666666666667
scalar Network600.node290 	rate_of_requesters 	1
scalar Network600.node290 	number_of_resources 	33000
scalar Network600.node290 	time_period 	1
scalar Network600.node290 	number_of_messages 	32
scalar Network600.node290 	discovery_latency 	4356
scalar Network600.node290 	number_of_desired_resources 	20
scalar Network600.node290 	query_homogenity_rate 	33.333333333333
scalar Network600.node290 	qrecord_time 	9022
scalar Network600.node290 	discovery_resolution_rate 	66.666666666667
scalar Network600.node490 	rate_of_requesters 	1
scalar Network600.node490 	number_of_resources 	33000
scalar Network600.node490 	time_period 	1
scalar Network600.node490 	number_of_messages 	2
scalar Network600.node490 	discovery_latency 	4356
scalar Network600.node490 	number_of_desired_resources 	20
scalar Network600.node490 	query_homogenity_rate 	33.333333333333
scalar Network600.node490 	qrecord_time 	9022
scalar Network600.node490 	discovery_resolution_rate 	0
scalar Network600.node390 	rate_of_requesters 	1
scalar Network600.node390 	number_of_resources 	33000
scalar Network600.node390 	time_period 	1
scalar Network600.node390 	number_of_messages 	2
scalar Network600.node390 	discovery_latency 	4212
scalar Network600.node390 	number_of_desired_resources 	20
scalar Network600.node390 	query_homogenity_rate 	33.333333333333
scalar Network600.node390 	qrecord_time 	9028
scalar Network600.node390 	discovery_resolution_rate 	0
scalar Network600.node170 	rate_of_requesters 	1
scalar Network600.node170 	number_of_resources 	33000
scalar Network600.node170 	time_period 	1
scalar Network600.node170 	number_of_messages 	2
scalar Network600.node170 	discovery_latency 	4212
scalar Network600.node170 	number_of_desired_resources 	20
scalar Network600.node170 	query_homogenity_rate 	33.333333333333
scalar Network600.node170 	qrecord_time 	9028
scalar Network600.node170 	discovery_resolution_rate 	0
scalar Network600.node360 	rate_of_requesters 	1
scalar Network600.node360 	number_of_resources 	33000
scalar Network600.node360 	time_period 	1
scalar Network600.node360 	number_of_messages 	8
scalar Network600.node360 	discovery_latency 	4272
scalar Network600.node360 	number_of_desired_resources 	20
scalar Network600.node360 	query_homogenity_rate 	33.333333333333
scalar Network600.node360 	qrecord_time 	9034
scalar Network600.node360 	discovery_resolution_rate 	33.333333333333
scalar Network600.node160 	rate_of_requesters 	1
scalar Network600.node160 	number_of_resources 	33000
scalar Network600.node160 	time_period 	1
scalar Network600.node160 	number_of_messages 	2
scalar Network600.node160 	discovery_latency 	4326
scalar Network600.node160 	number_of_desired_resources 	20
scalar Network600.node160 	query_homogenity_rate 	33.333333333333
scalar Network600.node160 	qrecord_time 	9040
scalar Network600.node160 	discovery_resolution_rate 	0
scalar Network600.node320 	rate_of_requesters 	1
scalar Network600.node320 	number_of_resources 	33000
scalar Network600.node320 	time_period 	1
scalar Network600.node320 	number_of_messages 	16
scalar Network600.node320 	discovery_latency 	4254
scalar Network600.node320 	number_of_desired_resources 	20
scalar Network600.node320 	query_homogenity_rate 	33.333333333333
scalar Network600.node320 	qrecord_time 	9046
scalar Network600.node320 	discovery_resolution_rate 	33.333333333333
scalar Network600.node250 	rate_of_requesters 	1
scalar Network600.node250 	number_of_resources 	33000
scalar Network600.node250 	time_period 	1
scalar Network600.node250 	number_of_messages 	2
scalar Network600.node250 	discovery_latency 	4302
scalar Network600.node250 	number_of_desired_resources 	20
scalar Network600.node250 	query_homogenity_rate 	33.333333333333
scalar Network600.node250 	qrecord_time 	9052
scalar Network600.node250 	discovery_resolution_rate 	0
scalar Network600.node130 	rate_of_requesters 	1
scalar Network600.node130 	number_of_resources 	33000
scalar Network600.node130 	time_period 	1
scalar Network600.node130 	number_of_messages 	13
scalar Network600.node130 	discovery_latency 	4326
scalar Network600.node130 	number_of_desired_resources 	20
scalar Network600.node130 	query_homogenity_rate 	33.333333333333
scalar Network600.node130 	qrecord_time 	9052
scalar Network600.node130 	discovery_resolution_rate 	66.666666666667
scalar Network600.node300 	rate_of_requesters 	1
scalar Network600.node300 	number_of_resources 	33000
scalar Network600.node300 	time_period 	1
scalar Network600.node300 	number_of_messages 	40
scalar Network600.node300 	discovery_latency 	4284
scalar Network600.node300 	number_of_desired_resources 	20
scalar Network600.node300 	query_homogenity_rate 	33.333333333333
scalar Network600.node300 	qrecord_time 	9052
scalar Network600.node300 	discovery_resolution_rate 	66.666666666667
scalar Network600.node50 	rate_of_requesters 	1
scalar Network600.node50 	number_of_resources 	33000
scalar Network600.node50 	time_period 	1
scalar Network600.node50 	number_of_messages 	3
scalar Network600.node50 	discovery_latency 	4314
scalar Network600.node50 	number_of_desired_resources 	20
scalar Network600.node50 	query_homogenity_rate 	33.333333333333
scalar Network600.node50 	qrecord_time 	9058
scalar Network600.node50 	discovery_resolution_rate 	33.333333333333
scalar Network600.node410 	rate_of_requesters 	1
scalar Network600.node410 	number_of_resources 	33000
scalar Network600.node410 	time_period 	1
scalar Network600.node410 	number_of_messages 	2
scalar Network600.node410 	discovery_latency 	4278
scalar Network600.node410 	number_of_desired_resources 	20
scalar Network600.node410 	query_homogenity_rate 	33.333333333333
scalar Network600.node410 	qrecord_time 	9070
scalar Network600.node410 	discovery_resolution_rate 	0
scalar Network600.node30 	rate_of_requesters 	1
scalar Network600.node30 	number_of_resources 	33000
scalar Network600.node30 	time_period 	1
scalar Network600.node30 	number_of_messages 	36
scalar Network600.node30 	discovery_latency 	4374
scalar Network600.node30 	number_of_desired_resources 	20
scalar Network600.node30 	query_homogenity_rate 	33.333333333333
scalar Network600.node30 	qrecord_time 	9082
scalar Network600.node30 	discovery_resolution_rate 	33.333333333333
scalar Network600.node510 	rate_of_requesters 	1
scalar Network600.node510 	number_of_resources 	33000
scalar Network600.node510 	time_period 	1
scalar Network600.node510 	number_of_messages 	23
scalar Network600.node510 	discovery_latency 	4326
scalar Network600.node510 	number_of_desired_resources 	20
scalar Network600.node510 	query_homogenity_rate 	33.333333333333
scalar Network600.node510 	qrecord_time 	9082
scalar Network600.node510 	discovery_resolution_rate 	33.333333333333
scalar Network600.node90 	rate_of_requesters 	1
scalar Network600.node90 	number_of_resources 	33000
scalar Network600.node90 	time_period 	1
scalar Network600.node90 	number_of_messages 	2
scalar Network600.node90 	discovery_latency 	4338
scalar Network600.node90 	number_of_desired_resources 	20
scalar Network600.node90 	query_homogenity_rate 	33.333333333333
scalar Network600.node90 	qrecord_time 	9088
scalar Network600.node90 	discovery_resolution_rate 	0
scalar Network600.node110 	rate_of_requesters 	1
scalar Network600.node110 	number_of_resources 	33000
scalar Network600.node110 	time_period 	1
scalar Network600.node110 	number_of_messages 	200
scalar Network600.node110 	discovery_latency 	4362
scalar Network600.node110 	number_of_desired_resources 	20
scalar Network600.node110 	query_homogenity_rate 	33.333333333333
scalar Network600.node110 	qrecord_time 	9088
scalar Network600.node110 	discovery_resolution_rate 	16.666666666667
scalar Network600.node220 	rate_of_requesters 	1
scalar Network600.node220 	number_of_resources 	33000
scalar Network600.node220 	time_period 	3
scalar Network600.node220 	number_of_messages 	2
scalar Network600.node220 	discovery_latency 	4146
scalar Network600.node220 	number_of_desired_resources 	20
scalar Network600.node220 	query_homogenity_rate 	33.333333333333
scalar Network600.node220 	qrecord_time 	9103.919962542
scalar Network600.node220 	discovery_resolution_rate 	0
scalar Network600.node530 	rate_of_requesters 	1
scalar Network600.node530 	number_of_resources 	33000
scalar Network600.node530 	time_period 	2
scalar Network600.node530 	number_of_messages 	10
scalar Network600.node530 	discovery_latency 	4278
scalar Network600.node530 	number_of_desired_resources 	20
scalar Network600.node530 	query_homogenity_rate 	33.333333333333
scalar Network600.node530 	qrecord_time 	9120.087444375
scalar Network600.node530 	discovery_resolution_rate 	33.333333333333
scalar Network600.node210 	rate_of_requesters 	1
scalar Network600.node210 	number_of_resources 	33000
scalar Network600.node210 	time_period 	1
scalar Network600.node210 	number_of_messages 	28
scalar Network600.node210 	discovery_latency 	4470
scalar Network600.node210 	number_of_desired_resources 	20
scalar Network600.node210 	query_homogenity_rate 	33.333333333333
scalar Network600.node210 	qrecord_time 	9142
scalar Network600.node210 	discovery_resolution_rate 	66.666666666667
scalar Network600.node430 	rate_of_requesters 	1
scalar Network600.node430 	number_of_resources 	33000
scalar Network600.node430 	time_period 	1
scalar Network600.node430 	number_of_messages 	31
scalar Network600.node430 	discovery_latency 	4410
scalar Network600.node430 	number_of_desired_resources 	20
scalar Network600.node430 	query_homogenity_rate 	33.333333333333
scalar Network600.node430 	qrecord_time 	9148
scalar Network600.node430 	discovery_resolution_rate 	66.666666666667
scalar Network600.node240 	rate_of_requesters 	1
scalar Network600.node240 	number_of_resources 	33000
scalar Network600.node240 	time_period 	1
scalar Network600.node240 	number_of_messages 	23
scalar Network600.node240 	discovery_latency 	4374
scalar Network600.node240 	number_of_desired_resources 	20
scalar Network600.node240 	query_homogenity_rate 	33.333333333333
scalar Network600.node240 	qrecord_time 	9154
scalar Network600.node240 	discovery_resolution_rate 	33.333333333333
scalar Network600.node420 	rate_of_requesters 	1
scalar Network600.node420 	number_of_resources 	33000
scalar Network600.node420 	time_period 	1
scalar Network600.node420 	number_of_messages 	31
scalar Network600.node420 	discovery_latency 	4422
scalar Network600.node420 	number_of_desired_resources 	20
scalar Network600.node420 	query_homogenity_rate 	33.333333333333
scalar Network600.node420 	qrecord_time 	9160
scalar Network600.node420 	discovery_resolution_rate 	33.333333333333
scalar Network600.node230 	rate_of_requesters 	1
scalar Network600.node230 	number_of_resources 	33000
scalar Network600.node230 	time_period 	1
scalar Network600.node230 	number_of_messages 	192
scalar Network600.node230 	discovery_latency 	4374
scalar Network600.node230 	number_of_desired_resources 	20
scalar Network600.node230 	query_homogenity_rate 	33.333333333333
scalar Network600.node230 	qrecord_time 	9166
scalar Network600.node230 	discovery_resolution_rate 	16.666666666667
scalar Network600.node100 	rate_of_requesters 	1
scalar Network600.node100 	number_of_resources 	33000
scalar Network600.node100 	time_period 	1
scalar Network600.node100 	number_of_messages 	2
scalar Network600.node100 	discovery_latency 	4386
scalar Network600.node100 	number_of_desired_resources 	20
scalar Network600.node100 	query_homogenity_rate 	33.333333333333
scalar Network600.node100 	qrecord_time 	9184
scalar Network600.node100 	discovery_resolution_rate 	0
scalar Network600.node220 	rate_of_requesters 	1
scalar Network600.node220 	number_of_resources 	33000
scalar Network600.node220 	time_period 	2
scalar Network600.node220 	number_of_messages 	11
scalar Network600.node220 	discovery_latency 	4386
scalar Network600.node220 	number_of_desired_resources 	20
scalar Network600.node220 	query_homogenity_rate 	33.333333333333
scalar Network600.node220 	qrecord_time 	9228.159821215
scalar Network600.node220 	discovery_resolution_rate 	33.333333333333
scalar Network600.node130 	rate_of_requesters 	1
scalar Network600.node130 	number_of_resources 	33000
scalar Network600.node130 	time_period 	2
scalar Network600.node130 	number_of_messages 	200
scalar Network600.node130 	discovery_latency 	4326
scalar Network600.node130 	number_of_desired_resources 	20
scalar Network600.node130 	query_homogenity_rate 	33.333333333333
scalar Network600.node130 	qrecord_time 	9241.168973478
scalar Network600.node130 	discovery_resolution_rate 	16.666666666667
scalar Network600.node260 	rate_of_requesters 	1
scalar Network600.node260 	number_of_resources 	33000
scalar Network600.node260 	time_period 	1
scalar Network600.node260 	number_of_messages 	2
scalar Network600.node260 	discovery_latency 	4422
scalar Network600.node260 	number_of_desired_resources 	20
scalar Network600.node260 	query_homogenity_rate 	33.333333333333
scalar Network600.node260 	qrecord_time 	9274
scalar Network600.node260 	discovery_resolution_rate 	0
scalar Network600.node540 	rate_of_requesters 	1
scalar Network600.node540 	number_of_resources 	33000
scalar Network600.node540 	time_period 	2
scalar Network600.node540 	number_of_messages 	2
scalar Network600.node540 	discovery_latency 	4230
scalar Network600.node540 	number_of_desired_resources 	20
scalar Network600.node540 	query_homogenity_rate 	33.333333333333
scalar Network600.node540 	qrecord_time 	9372.190163361
scalar Network600.node540 	discovery_resolution_rate 	0
scalar Network600.node410 	rate_of_requesters 	1
scalar Network600.node410 	number_of_resources 	33000
scalar Network600.node410 	time_period 	2
scalar Network600.node410 	number_of_messages 	2
scalar Network600.node410 	discovery_latency 	4242
scalar Network600.node410 	number_of_desired_resources 	20
scalar Network600.node410 	query_homogenity_rate 	33.333333333333
scalar Network600.node410 	qrecord_time 	9545.482285537
scalar Network600.node410 	discovery_resolution_rate 	0
scalar Network600.node250 	rate_of_requesters 	1
scalar Network600.node250 	number_of_resources 	33000
scalar Network600.node250 	time_period 	2
scalar Network600.node250 	number_of_messages 	2
scalar Network600.node250 	discovery_latency 	4410
scalar Network600.node250 	number_of_desired_resources 	20
scalar Network600.node250 	query_homogenity_rate 	33.333333333333
scalar Network600.node250 	qrecord_time 	9594.484565481
scalar Network600.node250 	discovery_resolution_rate 	0
scalar Network600.node120 	rate_of_requesters 	1
scalar Network600.node120 	number_of_resources 	33000
scalar Network600.node120 	time_period 	2
scalar Network600.node120 	number_of_messages 	2
scalar Network600.node120 	discovery_latency 	4236
scalar Network600.node120 	number_of_desired_resources 	20
scalar Network600.node120 	query_homogenity_rate 	33.333333333333
scalar Network600.node120 	qrecord_time 	9621.041276515
scalar Network600.node120 	discovery_resolution_rate 	0
scalar Network600.node120 	rate_of_requesters 	1
scalar Network600.node120 	number_of_resources 	33000
scalar Network600.node120 	time_period 	3
scalar Network600.node120 	number_of_messages 	2
scalar Network600.node120 	discovery_latency 	4098
scalar Network600.node120 	number_of_desired_resources 	20
scalar Network600.node120 	query_homogenity_rate 	33.333333333333
scalar Network600.node120 	qrecord_time 	9674.118866255
scalar Network600.node120 	discovery_resolution_rate 	0
scalar Network600.node170 	rate_of_requesters 	1
scalar Network600.node170 	number_of_resources 	33000
scalar Network600.node170 	time_period 	2
scalar Network600.node170 	number_of_messages 	2
scalar Network600.node170 	discovery_latency 	4050
scalar Network600.node170 	number_of_desired_resources 	20
scalar Network600.node170 	query_homogenity_rate 	33.333333333333
scalar Network600.node170 	qrecord_time 	9713.113236091
scalar Network600.node170 	discovery_resolution_rate 	0
scalar Network600.node570 	rate_of_requesters 	1
scalar Network600.node570 	number_of_resources 	33000
scalar Network600.node570 	time_period 	2
scalar Network600.node570 	number_of_messages 	2
scalar Network600.node570 	discovery_latency 	4254
scalar Network600.node570 	number_of_desired_resources 	20
scalar Network600.node570 	query_homogenity_rate 	33.333333333333
scalar Network600.node570 	qrecord_time 	9729.083831848
scalar Network600.node570 	discovery_resolution_rate 	0
scalar Network600.node200 	rate_of_requesters 	1
scalar Network600.node200 	number_of_resources 	33000
scalar Network600.node200 	time_period 	2
scalar Network600.node200 	number_of_messages 	2
scalar Network600.node200 	discovery_latency 	4170
scalar Network600.node200 	number_of_desired_resources 	20
scalar Network600.node200 	query_homogenity_rate 	33.333333333333
scalar Network600.node200 	qrecord_time 	9813.958139626
scalar Network600.node200 	discovery_resolution_rate 	0
scalar Network600.node80 	rate_of_requesters 	1
scalar Network600.node80 	number_of_resources 	33000
scalar Network600.node80 	time_period 	2
scalar Network600.node80 	number_of_messages 	2
scalar Network600.node80 	discovery_latency 	4278
scalar Network600.node80 	number_of_desired_resources 	20
scalar Network600.node80 	query_homogenity_rate 	33.333333333333
scalar Network600.node80 	qrecord_time 	10025.070488343
scalar Network600.node80 	discovery_resolution_rate 	0
scalar Network600.node220 	rate_of_requesters 	1
scalar Network600.node220 	number_of_resources 	33000
scalar Network600.node220 	time_period 	4
scalar Network600.node220 	number_of_messages 	2
scalar Network600.node220 	discovery_latency 	4302
scalar Network600.node220 	number_of_desired_resources 	20
scalar Network600.node220 	query_homogenity_rate 	33.333333333333
scalar Network600.node220 	qrecord_time 	10031.019973962
scalar Network600.node220 	discovery_resolution_rate 	0
scalar Network600.node320 	rate_of_requesters 	1
scalar Network600.node320 	number_of_resources 	33000
scalar Network600.node320 	time_period 	2
scalar Network600.node320 	number_of_messages 	2
scalar Network600.node320 	discovery_latency 	4266
scalar Network600.node320 	number_of_desired_resources 	20
scalar Network600.node320 	query_homogenity_rate 	33.333333333333
scalar Network600.node320 	qrecord_time 	10038.514658785
scalar Network600.node320 	discovery_resolution_rate 	0
scalar Network600.node400 	rate_of_requesters 	1
scalar Network600.node400 	number_of_resources 	33000
scalar Network600.node400 	time_period 	2
scalar Network600.node400 	number_of_messages 	2
scalar Network600.node400 	discovery_latency 	4230
scalar Network600.node400 	number_of_desired_resources 	20
scalar Network600.node400 	query_homogenity_rate 	33.333333333333
scalar Network600.node400 	qrecord_time 	10097.313523293
scalar Network600.node400 	discovery_resolution_rate 	0
scalar Network600.node380 	rate_of_requesters 	1
scalar Network600.node380 	number_of_resources 	33000
scalar Network600.node380 	time_period 	2
scalar Network600.node380 	number_of_messages 	2
scalar Network600.node380 	discovery_latency 	4176
scalar Network600.node380 	number_of_desired_resources 	20
scalar Network600.node380 	query_homogenity_rate 	33.333333333333
scalar Network600.node380 	qrecord_time 	10153.937201382
scalar Network600.node380 	discovery_resolution_rate 	0
scalar Network600.node140 	rate_of_requesters 	1
scalar Network600.node140 	number_of_resources 	33000
scalar Network600.node140 	time_period 	2
scalar Network600.node140 	number_of_messages 	2
scalar Network600.node140 	discovery_latency 	4326
scalar Network600.node140 	number_of_desired_resources 	20
scalar Network600.node140 	query_homogenity_rate 	33.333333333333
scalar Network600.node140 	qrecord_time 	10246.244831015
scalar Network600.node140 	discovery_resolution_rate 	0
scalar Network600.node50 	rate_of_requesters 	1
scalar Network600.node50 	number_of_resources 	33000
scalar Network600.node50 	time_period 	2
scalar Network600.node50 	number_of_messages 	0
scalar Network600.node50 	discovery_latency 	4422
scalar Network600.node50 	number_of_desired_resources 	20
scalar Network600.node50 	query_homogenity_rate 	33.333333333333
scalar Network600.node50 	qrecord_time 	10293.969287855
scalar Network600.node50 	discovery_resolution_rate 	0
scalar Network600.node580 	rate_of_requesters 	1
scalar Network600.node580 	number_of_resources 	33000
scalar Network600.node580 	time_period 	2
scalar Network600.node580 	number_of_messages 	2
scalar Network600.node580 	discovery_latency 	4446
scalar Network600.node580 	number_of_desired_resources 	20
scalar Network600.node580 	query_homogenity_rate 	33.333333333333
scalar Network600.node580 	qrecord_time 	10341.146194499
scalar Network600.node580 	discovery_resolution_rate 	0
scalar Network600.node510 	rate_of_requesters 	1
scalar Network600.node510 	number_of_resources 	33000
scalar Network600.node510 	time_period 	2
scalar Network600.node510 	number_of_messages 	2
scalar Network600.node510 	discovery_latency 	4218
scalar Network600.node510 	number_of_desired_resources 	20
scalar Network600.node510 	query_homogenity_rate 	33.333333333333
scalar Network600.node510 	qrecord_time 	10419.942720772
scalar Network600.node510 	discovery_resolution_rate 	0
scalar Network600.node340 	rate_of_requesters 	1
scalar Network600.node340 	number_of_resources 	33000
scalar Network600.node340 	time_period 	2
scalar Network600.node340 	number_of_messages 	0
scalar Network600.node340 	discovery_latency 	4374
scalar Network600.node340 	number_of_desired_resources 	20
scalar Network600.node340 	query_homogenity_rate 	33.333333333333
scalar Network600.node340 	qrecord_time 	10560.378662989
scalar Network600.node340 	discovery_resolution_rate 	0
scalar Network600.node440 	rate_of_requesters 	1
scalar Network600.node440 	number_of_resources 	33000
scalar Network600.node440 	time_period 	2
scalar Network600.node440 	number_of_messages 	2
scalar Network600.node440 	discovery_latency 	4374
scalar Network600.node440 	number_of_desired_resources 	20
scalar Network600.node440 	query_homogenity_rate 	33.333333333333
scalar Network600.node440 	qrecord_time 	10566.742025699
scalar Network600.node440 	discovery_resolution_rate 	0
scalar Network600.node20 	rate_of_requesters 	1
scalar Network600.node20 	number_of_resources 	33000
scalar Network600.node20 	time_period 	2
scalar Network600.node20 	number_of_messages 	2
scalar Network600.node20 	discovery_latency 	4278
scalar Network600.node20 	number_of_desired_resources 	20
scalar Network600.node20 	query_homogenity_rate 	33.333333333333
scalar Network600.node20 	qrecord_time 	10570.426830202
scalar Network600.node20 	discovery_resolution_rate 	0
scalar Network600.node110 	rate_of_requesters 	1
scalar Network600.node110 	number_of_resources 	33000
scalar Network600.node110 	time_period 	2
scalar Network600.node110 	number_of_messages 	2
scalar Network600.node110 	discovery_latency 	4218
scalar Network600.node110 	number_of_desired_resources 	20
scalar Network600.node110 	query_homogenity_rate 	33.333333333333
scalar Network600.node110 	qrecord_time 	10597.920253264
scalar Network600.node110 	discovery_resolution_rate 	0
scalar Network600.node120 	rate_of_requesters 	1
scalar Network600.node120 	number_of_resources 	33000
scalar Network600.node120 	time_period 	4
scalar Network600.node120 	number_of_messages 	2
scalar Network600.node120 	discovery_latency 	4308
scalar Network600.node120 	number_of_desired_resources 	20
scalar Network600.node120 	query_homogenity_rate 	33.333333333333
scalar Network600.node120 	qrecord_time 	10601.475543478
scalar Network600.node120 	discovery_resolution_rate 	0
scalar Network600.node370 	rate_of_requesters 	1
scalar Network600.node370 	number_of_resources 	33000
scalar Network600.node370 	time_period 	2
scalar Network600.node370 	number_of_messages 	0
scalar Network600.node370 	discovery_latency 	4260
scalar Network600.node370 	number_of_desired_resources 	20
scalar Network600.node370 	query_homogenity_rate 	33.333333333333
scalar Network600.node370 	qrecord_time 	10605.425412601
scalar Network600.node370 	discovery_resolution_rate 	0
scalar Network600.node540 	rate_of_requesters 	1
scalar Network600.node540 	number_of_resources 	33000
scalar Network600.node540 	time_period 	3
scalar Network600.node540 	number_of_messages 	2
scalar Network600.node540 	discovery_latency 	4194
scalar Network600.node540 	number_of_desired_resources 	20
scalar Network600.node540 	query_homogenity_rate 	33.333333333333
scalar Network600.node540 	qrecord_time 	10632.657360888
scalar Network600.node540 	discovery_resolution_rate 	0
scalar Network600.node560 	rate_of_requesters 	1
scalar Network600.node560 	number_of_resources 	33000
scalar Network600.node560 	time_period 	2
scalar Network600.node560 	number_of_messages 	2
scalar Network600.node560 	discovery_latency 	4278
scalar Network600.node560 	number_of_desired_resources 	20
scalar Network600.node560 	query_homogenity_rate 	33.333333333333
scalar Network600.node560 	qrecord_time 	10633.162261881
scalar Network600.node560 	discovery_resolution_rate 	0
scalar Network600.node430 	rate_of_requesters 	1
scalar Network600.node430 	number_of_resources 	33000
scalar Network600.node430 	time_period 	2
scalar Network600.node430 	number_of_messages 	2
scalar Network600.node430 	discovery_latency 	4422
scalar Network600.node430 	number_of_desired_resources 	20
scalar Network600.node430 	query_homogenity_rate 	33.333333333333
scalar Network600.node430 	qrecord_time 	10665.069851472
scalar Network600.node430 	discovery_resolution_rate 	0
scalar Network600.node310 	rate_of_requesters 	1
scalar Network600.node310 	number_of_resources 	33000
scalar Network600.node310 	time_period 	2
scalar Network600.node310 	number_of_messages 	2
scalar Network600.node310 	discovery_latency 	4302
scalar Network600.node310 	number_of_desired_resources 	20
scalar Network600.node310 	query_homogenity_rate 	33.333333333333
scalar Network600.node310 	qrecord_time 	10669.272301704
scalar Network600.node310 	discovery_resolution_rate 	0
scalar Network600.node80 	rate_of_requesters 	1
scalar Network600.node80 	number_of_resources 	33000
scalar Network600.node80 	time_period 	3
scalar Network600.node80 	number_of_messages 	2
scalar Network600.node80 	discovery_latency 	4350
scalar Network600.node80 	number_of_desired_resources 	20
scalar Network600.node80 	query_homogenity_rate 	33.333333333333
scalar Network600.node80 	qrecord_time 	10681.019881281
scalar Network600.node80 	discovery_resolution_rate 	0
scalar Network600.node110 	rate_of_requesters 	1
scalar Network600.node110 	number_of_resources 	33000
scalar Network600.node110 	time_period 	3
scalar Network600.node110 	number_of_messages 	182
scalar Network600.node110 	discovery_latency 	2196
scalar Network600.node110 	number_of_desired_resources 	20
scalar Network600.node110 	query_homogenity_rate 	33.333333333333
scalar Network600.node110 	qrecord_time 	10785.683276942
scalar Network600.node110 	discovery_resolution_rate 	100
scalar Network600.node560 	rate_of_requesters 	1
scalar Network600.node560 	number_of_resources 	33000
scalar Network600.node560 	time_period 	3
scalar Network600.node560 	number_of_messages 	2
scalar Network600.node560 	discovery_latency 	4230
scalar Network600.node560 	number_of_desired_resources 	20
scalar Network600.node560 	query_homogenity_rate 	33.333333333333
scalar Network600.node560 	qrecord_time 	10814.280462007
scalar Network600.node560 	discovery_resolution_rate 	0
scalar Network600.node0 	rate_of_requesters 	1
scalar Network600.node0 	number_of_resources 	33000
scalar Network600.node0 	time_period 	2
scalar Network600.node0 	number_of_messages 	2
scalar Network600.node0 	discovery_latency 	4398
scalar Network600.node0 	number_of_desired_resources 	20
scalar Network600.node0 	query_homogenity_rate 	33.333333333333
scalar Network600.node0 	qrecord_time 	10925.083269398
scalar Network600.node0 	discovery_resolution_rate 	0
scalar Network600.node340 	rate_of_requesters 	1
scalar Network600.node340 	number_of_resources 	33000
scalar Network600.node340 	time_period 	3
scalar Network600.node340 	number_of_messages 	0
scalar Network600.node340 	discovery_latency 	4338
scalar Network600.node340 	number_of_desired_resources 	20
scalar Network600.node340 	query_homogenity_rate 	33.333333333333
scalar Network600.node340 	qrecord_time 	11092.605543802
scalar Network600.node340 	discovery_resolution_rate 	0
scalar Network600.node190 	rate_of_requesters 	1
scalar Network600.node190 	number_of_resources 	33000
scalar Network600.node190 	time_period 	3
scalar Network600.node190 	number_of_messages 	2
scalar Network600.node190 	discovery_latency 	4230
scalar Network600.node190 	number_of_desired_resources 	20
scalar Network600.node190 	query_homogenity_rate 	33.333333333333
scalar Network600.node190 	qrecord_time 	11190.646003875
scalar Network600.node190 	discovery_resolution_rate 	0
scalar Network600.node190 	rate_of_requesters 	1
scalar Network600.node190 	number_of_resources 	33000
scalar Network600.node190 	time_period 	2
scalar Network600.node190 	number_of_messages 	2
scalar Network600.node190 	discovery_latency 	4386
scalar Network600.node190 	number_of_desired_resources 	20
scalar Network600.node190 	query_homogenity_rate 	33.333333333333
scalar Network600.node190 	qrecord_time 	11258.45072715
scalar Network600.node190 	discovery_resolution_rate 	0
scalar Network600.node160 	rate_of_requesters 	1
scalar Network600.node160 	number_of_resources 	33000
scalar Network600.node160 	time_period 	2
scalar Network600.node160 	number_of_messages 	2
scalar Network600.node160 	discovery_latency 	4122
scalar Network600.node160 	number_of_desired_resources 	20
scalar Network600.node160 	query_homogenity_rate 	33.333333333333
scalar Network600.node160 	qrecord_time 	11349.559768151
scalar Network600.node160 	discovery_resolution_rate 	0
scalar Network600.node230 	rate_of_requesters 	1
scalar Network600.node230 	number_of_resources 	33000
scalar Network600.node230 	time_period 	2
scalar Network600.node230 	number_of_messages 	0
scalar Network600.node230 	discovery_latency 	4212
scalar Network600.node230 	number_of_desired_resources 	20
scalar Network600.node230 	query_homogenity_rate 	33.333333333333
scalar Network600.node230 	qrecord_time 	11395.547826828
scalar Network600.node230 	discovery_resolution_rate 	0
scalar Network600.node590 	rate_of_requesters 	1
scalar Network600.node590 	number_of_resources 	33000
scalar Network600.node590 	time_period 	2
scalar Network600.node590 	number_of_messages 	2
scalar Network600.node590 	discovery_latency 	4266
scalar Network600.node590 	number_of_desired_resources 	20
scalar Network600.node590 	query_homogenity_rate 	33.333333333333
scalar Network600.node590 	qrecord_time 	11404.839646157
scalar Network600.node590 	discovery_resolution_rate 	0
scalar Network600.node100 	rate_of_requesters 	1
scalar Network600.node100 	number_of_resources 	33000
scalar Network600.node100 	time_period 	2
scalar Network600.node100 	number_of_messages 	2
scalar Network600.node100 	discovery_latency 	4374
scalar Network600.node100 	number_of_desired_resources 	20
scalar Network600.node100 	query_homogenity_rate 	33.333333333333
scalar Network600.node100 	qrecord_time 	11480.787017376
scalar Network600.node100 	discovery_resolution_rate 	0
scalar Network600.node170 	rate_of_requesters 	1
scalar Network600.node170 	number_of_resources 	33000
scalar Network600.node170 	time_period 	3
scalar Network600.node170 	number_of_messages 	2
scalar Network600.node170 	discovery_latency 	4362
scalar Network600.node170 	number_of_desired_resources 	20
scalar Network600.node170 	query_homogenity_rate 	33.333333333333
scalar Network600.node170 	qrecord_time 	11485.045000714
scalar Network600.node170 	discovery_resolution_rate 	0
scalar Network600.node550 	rate_of_requesters 	1
scalar Network600.node550 	number_of_resources 	33000
scalar Network600.node550 	time_period 	2
scalar Network600.node550 	number_of_messages 	2
scalar Network600.node550 	discovery_latency 	4254
scalar Network600.node550 	number_of_desired_resources 	20
scalar Network600.node550 	query_homogenity_rate 	33.333333333333
scalar Network600.node550 	qrecord_time 	11495.740265179
scalar Network600.node550 	discovery_resolution_rate 	0
scalar Network600.node150 	rate_of_requesters 	1
scalar Network600.node150 	number_of_resources 	33000
scalar Network600.node150 	time_period 	2
scalar Network600.node150 	number_of_messages 	149
scalar Network600.node150 	discovery_latency 	4170
scalar Network600.node150 	number_of_desired_resources 	20
scalar Network600.node150 	query_homogenity_rate 	33.333333333333
scalar Network600.node150 	qrecord_time 	11615.330298661
scalar Network600.node150 	discovery_resolution_rate 	33.333333333333
scalar Network600.node590 	rate_of_requesters 	1
scalar Network600.node590 	number_of_resources 	33000
scalar Network600.node590 	time_period 	3
scalar Network600.node590 	number_of_messages 	2
scalar Network600.node590 	discovery_latency 	4230
scalar Network600.node590 	number_of_desired_resources 	20
scalar Network600.node590 	query_homogenity_rate 	33.333333333333
scalar Network600.node590 	qrecord_time 	11616.958320211
scalar Network600.node590 	discovery_resolution_rate 	0
scalar Network600.node270 	rate_of_requesters 	1
scalar Network600.node270 	number_of_resources 	33000
scalar Network600.node270 	time_period 	2
scalar Network600.node270 	number_of_messages 	92
scalar Network600.node270 	discovery_latency 	4068
scalar Network600.node270 	number_of_desired_resources 	20
scalar Network600.node270 	query_homogenity_rate 	33.333333333333
scalar Network600.node270 	qrecord_time 	11636.946899367
scalar Network600.node270 	discovery_resolution_rate 	33.333333333333
scalar Network600.node510 	rate_of_requesters 	1
scalar Network600.node510 	number_of_resources 	33000
scalar Network600.node510 	time_period 	3
scalar Network600.node510 	number_of_messages 	2
scalar Network600.node510 	discovery_latency 	4188
scalar Network600.node510 	number_of_desired_resources 	20
scalar Network600.node510 	query_homogenity_rate 	33.333333333333
scalar Network600.node510 	qrecord_time 	11638.708327544
scalar Network600.node510 	discovery_resolution_rate 	0
scalar Network600.node380 	rate_of_requesters 	1
scalar Network600.node380 	number_of_resources 	33000
scalar Network600.node380 	time_period 	3
scalar Network600.node380 	number_of_messages 	2
scalar Network600.node380 	discovery_latency 	4170
scalar Network600.node380 	number_of_desired_resources 	20
scalar Network600.node380 	query_homogenity_rate 	33.333333333333
scalar Network600.node380 	qrecord_time 	11780.140023389
scalar Network600.node380 	discovery_resolution_rate 	0
scalar Network600.node480 	rate_of_requesters 	1
scalar Network600.node480 	number_of_resources 	33000
scalar Network600.node480 	time_period 	2
scalar Network600.node480 	number_of_messages 	2
scalar Network600.node480 	discovery_latency 	4566
scalar Network600.node480 	number_of_desired_resources 	20
scalar Network600.node480 	query_homogenity_rate 	33.333333333333
scalar Network600.node480 	qrecord_time 	11960.706936688
scalar Network600.node480 	discovery_resolution_rate 	0
scalar Network600.node340 	rate_of_requesters 	1
scalar Network600.node340 	number_of_resources 	33000
scalar Network600.node340 	time_period 	5
scalar Network600.node340 	number_of_messages 	0
scalar Network600.node340 	discovery_latency 	4242
scalar Network600.node340 	number_of_desired_resources 	20
scalar Network600.node340 	query_homogenity_rate 	33.333333333333
scalar Network600.node340 	qrecord_time 	11964.32284041
scalar Network600.node340 	discovery_resolution_rate 	0
scalar Network600.node280 	rate_of_requesters 	1
scalar Network600.node280 	number_of_resources 	33000
scalar Network600.node280 	time_period 	2
scalar Network600.node280 	number_of_messages 	163
scalar Network600.node280 	discovery_latency 	1662
scalar Network600.node280 	number_of_desired_resources 	20
scalar Network600.node280 	query_homogenity_rate 	33.333333333333
scalar Network600.node280 	qrecord_time 	12014.888541688
scalar Network600.node280 	discovery_resolution_rate 	100
scalar Network600.node340 	rate_of_requesters 	1
scalar Network600.node340 	number_of_resources 	33000
scalar Network600.node340 	time_period 	4
scalar Network600.node340 	number_of_messages 	0
scalar Network600.node340 	discovery_latency 	4506
scalar Network600.node340 	number_of_desired_resources 	20
scalar Network600.node340 	query_homogenity_rate 	33.333333333333
scalar Network600.node340 	qrecord_time 	12079.449132345
scalar Network600.node340 	discovery_resolution_rate 	0
scalar Network600.node20 	rate_of_requesters 	1
scalar Network600.node20 	number_of_resources 	33000
scalar Network600.node20 	time_period 	3
scalar Network600.node20 	number_of_messages 	2
scalar Network600.node20 	discovery_latency 	4290
scalar Network600.node20 	number_of_desired_resources 	20
scalar Network600.node20 	query_homogenity_rate 	33.333333333333
scalar Network600.node20 	qrecord_time 	12079.61910823
scalar Network600.node20 	discovery_resolution_rate 	0
scalar Network600.node490 	rate_of_requesters 	1
scalar Network600.node490 	number_of_resources 	33000
scalar Network600.node490 	time_period 	2
scalar Network600.node490 	number_of_messages 	2
scalar Network600.node490 	discovery_latency 	4170
scalar Network600.node490 	number_of_desired_resources 	20
scalar Network600.node490 	query_homogenity_rate 	33.333333333333
scalar Network600.node490 	qrecord_time 	12203.868616593
scalar Network600.node490 	discovery_resolution_rate 	0
scalar Network600.node540 	rate_of_requesters 	1
scalar Network600.node540 	number_of_resources 	33000
scalar Network600.node540 	time_period 	4
scalar Network600.node540 	number_of_messages 	2
scalar Network600.node540 	discovery_latency 	4230
scalar Network600.node540 	number_of_desired_resources 	20
scalar Network600.node540 	query_homogenity_rate 	33.333333333333
scalar Network600.node540 	qrecord_time 	12314.608829279
scalar Network600.node540 	discovery_resolution_rate 	0
scalar Network600.node530 	rate_of_requesters 	1
scalar Network600.node530 	number_of_resources 	33000
scalar Network600.node530 	time_period 	3
scalar Network600.node530 	number_of_messages 	104
scalar Network600.node530 	discovery_latency 	4266
scalar Network600.node530 	number_of_desired_resources 	20
scalar Network600.node530 	query_homogenity_rate 	33.333333333333
scalar Network600.node530 	qrecord_time 	12821.63399464
scalar Network600.node530 	discovery_resolution_rate 	33.333333333333
scalar Network600.node310 	rate_of_requesters 	1
scalar Network600.node310 	number_of_resources 	33000
scalar Network600.node310 	time_period 	3
scalar Network600.node310 	number_of_messages 	2
scalar Network600.node310 	discovery_latency 	4074
scalar Network600.node310 	number_of_desired_resources 	20
scalar Network600.node310 	query_homogenity_rate 	33.333333333333
scalar Network600.node310 	qrecord_time 	12837.762966511
scalar Network600.node310 	discovery_resolution_rate 	0
scalar Network600.node450 	rate_of_requesters 	1
scalar Network600.node450 	number_of_resources 	33000
scalar Network600.node450 	time_period 	2
scalar Network600.node450 	number_of_messages 	56
scalar Network600.node450 	discovery_latency 	4332
scalar Network600.node450 	number_of_desired_resources 	20
scalar Network600.node450 	query_homogenity_rate 	33.333333333333
scalar Network600.node450 	qrecord_time 	12844.298284125
scalar Network600.node450 	discovery_resolution_rate 	33.333333333333
scalar Network600.node260 	rate_of_requesters 	1
scalar Network600.node260 	number_of_resources 	33000
scalar Network600.node260 	time_period 	2
scalar Network600.node260 	number_of_messages 	12
scalar Network600.node260 	discovery_latency 	4188
scalar Network600.node260 	number_of_desired_resources 	20
scalar Network600.node260 	query_homogenity_rate 	33.333333333333
scalar Network600.node260 	qrecord_time 	12868.732563273
scalar Network600.node260 	discovery_resolution_rate 	33.333333333333
scalar Network600.node550 	rate_of_requesters 	1
scalar Network600.node550 	number_of_resources 	33000
scalar Network600.node550 	time_period 	3
scalar Network600.node550 	number_of_messages 	2
scalar Network600.node550 	discovery_latency 	4278
scalar Network600.node550 	number_of_desired_resources 	20
scalar Network600.node550 	query_homogenity_rate 	33.333333333333
scalar Network600.node550 	qrecord_time 	12910.476122654
scalar Network600.node550 	discovery_resolution_rate 	0
scalar Network600.node20 	rate_of_requesters 	1
scalar Network600.node20 	number_of_resources 	33000
scalar Network600.node20 	time_period 	4
scalar Network600.node20 	number_of_messages 	2
scalar Network600.node20 	discovery_latency 	4554
scalar Network600.node20 	number_of_desired_resources 	20
scalar Network600.node20 	query_homogenity_rate 	33.333333333333
scalar Network600.node20 	qrecord_time 	12993.860679802
scalar Network600.node20 	discovery_resolution_rate 	0
scalar Network600.node100 	rate_of_requesters 	1
scalar Network600.node100 	number_of_resources 	33000
scalar Network600.node100 	time_period 	3
scalar Network600.node100 	number_of_messages 	121
scalar Network600.node100 	discovery_latency 	4314
scalar Network600.node100 	number_of_desired_resources 	20
scalar Network600.node100 	query_homogenity_rate 	33.333333333333
scalar Network600.node100 	qrecord_time 	13065.648031831
scalar Network600.node100 	discovery_resolution_rate 	33.333333333333
scalar Network600.node180 	rate_of_requesters 	1
scalar Network600.node180 	number_of_resources 	33000
scalar Network600.node180 	time_period 	2
scalar Network600.node180 	number_of_messages 	2
scalar Network600.node180 	discovery_latency 	4266
scalar Network600.node180 	number_of_desired_resources 	20
scalar Network600.node180 	query_homogenity_rate 	33.333333333333
scalar Network600.node180 	qrecord_time 	13082.326947341
scalar Network600.node180 	discovery_resolution_rate 	0
scalar Network600.node540 	rate_of_requesters 	1
scalar Network600.node540 	number_of_resources 	33000
scalar Network600.node540 	time_period 	5
scalar Network600.node540 	number_of_messages 	251
scalar Network600.node540 	discovery_latency 	3720
scalar Network600.node540 	number_of_desired_resources 	20
scalar Network600.node540 	query_homogenity_rate 	33.333333333333
scalar Network600.node540 	qrecord_time 	13086.444835556
scalar Network600.node540 	discovery_resolution_rate 	66.666666666667
scalar Network600.node340 	rate_of_requesters 	1
scalar Network600.node340 	number_of_resources 	33000
scalar Network600.node340 	time_period 	6
scalar Network600.node340 	number_of_messages 	49
scalar Network600.node340 	discovery_latency 	4272
scalar Network600.node340 	number_of_desired_resources 	20
scalar Network600.node340 	query_homogenity_rate 	33.333333333333
scalar Network600.node340 	qrecord_time 	13353.110613061
scalar Network600.node340 	discovery_resolution_rate 	33.333333333333
scalar Network600.node250 	rate_of_requesters 	1
scalar Network600.node250 	number_of_resources 	33000
scalar Network600.node250 	time_period 	3
scalar Network600.node250 	number_of_messages 	2
scalar Network600.node250 	discovery_latency 	4362
scalar Network600.node250 	number_of_desired_resources 	20
scalar Network600.node250 	query_homogenity_rate 	33.333333333333
scalar Network600.node250 	qrecord_time 	13405.71128984
scalar Network600.node250 	discovery_resolution_rate 	0
scalar Network600.node120 	rate_of_requesters 	1
scalar Network600.node120 	number_of_resources 	33000
scalar Network600.node120 	time_period 	5
scalar Network600.node120 	number_of_messages 	227
scalar Network600.node120 	discovery_latency 	4182
scalar Network600.node120 	number_of_desired_resources 	20
scalar Network600.node120 	query_homogenity_rate 	33.333333333333
scalar Network600.node120 	qrecord_time 	13482.513916336
scalar Network600.node120 	discovery_resolution_rate 	66.666666666667
scalar Network600.node510 	rate_of_requesters 	1
scalar Network600.node510 	number_of_resources 	33000
scalar Network600.node510 	time_period 	4
scalar Network600.node510 	number_of_messages 	102
scalar Network600.node510 	discovery_latency 	4230
scalar Network600.node510 	number_of_desired_resources 	20
scalar Network600.node510 	query_homogenity_rate 	33.333333333333
scalar Network600.node510 	qrecord_time 	13500.144450088
scalar Network600.node510 	discovery_resolution_rate 	33.333333333333
scalar Network600.node570 	rate_of_requesters 	1
scalar Network600.node570 	number_of_resources 	33000
scalar Network600.node570 	time_period 	3
scalar Network600.node570 	number_of_messages 	188
scalar Network600.node570 	discovery_latency 	4350
scalar Network600.node570 	number_of_desired_resources 	20
scalar Network600.node570 	query_homogenity_rate 	33.333333333333
scalar Network600.node570 	qrecord_time 	13515.825754375
scalar Network600.node570 	discovery_resolution_rate 	66.666666666667
scalar Network600.node30 	rate_of_requesters 	1
scalar Network600.node30 	number_of_resources 	33000
scalar Network600.node30 	time_period 	2
scalar Network600.node30 	number_of_messages 	2
scalar Network600.node30 	discovery_latency 	4200
scalar Network600.node30 	number_of_desired_resources 	20
scalar Network600.node30 	query_homogenity_rate 	33.333333333333
scalar Network600.node30 	qrecord_time 	13624.014449033
scalar Network600.node30 	discovery_resolution_rate 	0
scalar Network600.node70 	rate_of_requesters 	1
scalar Network600.node70 	number_of_resources 	33000
scalar Network600.node70 	time_period 	2
scalar Network600.node70 	number_of_messages 	142
scalar Network600.node70 	discovery_latency 	4338
scalar Network600.node70 	number_of_desired_resources 	20
scalar Network600.node70 	query_homogenity_rate 	33.333333333333
scalar Network600.node70 	qrecord_time 	13658.751480216
scalar Network600.node70 	discovery_resolution_rate 	33.333333333333
scalar Network600.node520 	rate_of_requesters 	1
scalar Network600.node520 	number_of_resources 	33000
scalar Network600.node520 	time_period 	5
scalar Network600.node520 	number_of_messages 	164
scalar Network600.node520 	discovery_latency 	1644
scalar Network600.node520 	number_of_desired_resources 	20
scalar Network600.node520 	query_homogenity_rate 	33.333333333333
scalar Network600.node520 	qrecord_time 	13674.667036972
scalar Network600.node520 	discovery_resolution_rate 	100
scalar Network600.node530 	rate_of_requesters 	1
scalar Network600.node530 	number_of_resources 	33000
scalar Network600.node530 	time_period 	4
scalar Network600.node530 	number_of_messages 	2
scalar Network600.node530 	discovery_latency 	4410
scalar Network600.node530 	number_of_desired_resources 	20
scalar Network600.node530 	query_homogenity_rate 	33.333333333333
scalar Network600.node530 	qrecord_time 	13681.598761129
scalar Network600.node530 	discovery_resolution_rate 	0
scalar Network600.node370 	rate_of_requesters 	1
scalar Network600.node370 	number_of_resources 	33000
scalar Network600.node370 	time_period 	3
scalar Network600.node370 	number_of_messages 	0
scalar Network600.node370 	discovery_latency 	4374
scalar Network600.node370 	number_of_desired_resources 	20
scalar Network600.node370 	query_homogenity_rate 	33.333333333333
scalar Network600.node370 	qrecord_time 	13765.728615196
scalar Network600.node370 	discovery_resolution_rate 	0
scalar Network600.node480 	rate_of_requesters 	1
scalar Network600.node480 	number_of_resources 	33000
scalar Network600.node480 	time_period 	3
scalar Network600.node480 	number_of_messages 	108
scalar Network600.node480 	discovery_latency 	4104
scalar Network600.node480 	number_of_desired_resources 	20
scalar Network600.node480 	query_homogenity_rate 	33.333333333333
scalar Network600.node480 	qrecord_time 	13793.110068272
scalar Network600.node480 	discovery_resolution_rate 	33.333333333333
scalar Network600.node430 	rate_of_requesters 	1
scalar Network600.node430 	number_of_resources 	33000
scalar Network600.node430 	time_period 	3
scalar Network600.node430 	number_of_messages 	89
scalar Network600.node430 	discovery_latency 	4146
scalar Network600.node430 	number_of_desired_resources 	20
scalar Network600.node430 	query_homogenity_rate 	33.333333333333
scalar Network600.node430 	qrecord_time 	14017.07386781
scalar Network600.node430 	discovery_resolution_rate 	33.333333333333
scalar Network600.node70 	rate_of_requesters 	1
scalar Network600.node70 	number_of_resources 	33000
scalar Network600.node70 	time_period 	3
scalar Network600.node70 	number_of_messages 	192
scalar Network600.node70 	discovery_latency 	3552
scalar Network600.node70 	number_of_desired_resources 	20
scalar Network600.node70 	query_homogenity_rate 	33.333333333333
scalar Network600.node70 	qrecord_time 	14017.44007958
scalar Network600.node70 	discovery_resolution_rate 	66.666666666667
scalar Network600.node200 	rate_of_requesters 	1
scalar Network600.node200 	number_of_resources 	33000
scalar Network600.node200 	time_period 	3
scalar Network600.node200 	number_of_messages 	196
scalar Network600.node200 	discovery_latency 	4314
scalar Network600.node200 	number_of_desired_resources 	20
scalar Network600.node200 	query_homogenity_rate 	33.333333333333
scalar Network600.node200 	qrecord_time 	14038.334167159
scalar Network600.node200 	discovery_resolution_rate 	50
scalar Network600.node430 	rate_of_requesters 	1
scalar Network600.node430 	number_of_resources 	33000
scalar Network600.node430 	time_period 	4
scalar Network600.node430 	number_of_messages 	140
scalar Network600.node430 	discovery_latency 	4182
scalar Network600.node430 	number_of_desired_resources 	20
scalar Network600.node430 	query_homogenity_rate 	33.333333333333
scalar Network600.node430 	qrecord_time 	14177.678840586
scalar Network600.node430 	discovery_resolution_rate 	33.333333333333
scalar Network600.node520 	rate_of_requesters 	1
scalar Network600.node520 	number_of_resources 	33000
scalar Network600.node520 	time_period 	2
scalar Network600.node520 	number_of_messages 	71
scalar Network600.node520 	discovery_latency 	4350
scalar Network600.node520 	number_of_desired_resources 	20
scalar Network600.node520 	query_homogenity_rate 	33.333333333333
scalar Network600.node520 	qrecord_time 	14184.025004014
scalar Network600.node520 	discovery_resolution_rate 	33.333333333333
scalar Network600.node560 	rate_of_requesters 	1
scalar Network600.node560 	number_of_resources 	33000
scalar Network600.node560 	time_period 	4
scalar Network600.node560 	number_of_messages 	157
scalar Network600.node560 	discovery_latency 	4266
scalar Network600.node560 	number_of_desired_resources 	20
scalar Network600.node560 	query_homogenity_rate 	33.333333333333
scalar Network600.node560 	qrecord_time 	14264.527283954
scalar Network600.node560 	discovery_resolution_rate 	33.333333333333
scalar Network600.node160 	rate_of_requesters 	1
scalar Network600.node160 	number_of_resources 	33000
scalar Network600.node160 	time_period 	3
scalar Network600.node160 	number_of_messages 	71
scalar Network600.node160 	discovery_latency 	4068
scalar Network600.node160 	number_of_desired_resources 	20
scalar Network600.node160 	query_homogenity_rate 	33.333333333333
scalar Network600.node160 	qrecord_time 	14307.312923505
scalar Network600.node160 	discovery_resolution_rate 	33.333333333333
scalar Network600.node360 	rate_of_requesters 	1
scalar Network600.node360 	number_of_resources 	33000
scalar Network600.node360 	time_period 	2
scalar Network600.node360 	number_of_messages 	70
scalar Network600.node360 	discovery_latency 	3720
scalar Network600.node360 	number_of_desired_resources 	20
scalar Network600.node360 	query_homogenity_rate 	33.333333333333
scalar Network600.node360 	qrecord_time 	14373.561635468
scalar Network600.node360 	discovery_resolution_rate 	66.666666666667
scalar Network600.node10 	rate_of_requesters 	1
scalar Network600.node10 	number_of_resources 	33000
scalar Network600.node10 	time_period 	4
scalar Network600.node10 	number_of_messages 	37
scalar Network600.node10 	discovery_latency 	420
scalar Network600.node10 	number_of_desired_resources 	20
scalar Network600.node10 	query_homogenity_rate 	33.333333333333
scalar Network600.node10 	qrecord_time 	14487.993382732
scalar Network600.node10 	discovery_resolution_rate 	100
scalar Network600.node170 	rate_of_requesters 	1
scalar Network600.node170 	number_of_resources 	33000
scalar Network600.node170 	time_period 	4
scalar Network600.node170 	number_of_messages 	194
scalar Network600.node170 	discovery_latency 	4326
scalar Network600.node170 	number_of_desired_resources 	20
scalar Network600.node170 	query_homogenity_rate 	33.333333333333
scalar Network600.node170 	qrecord_time 	14659.158124415
scalar Network600.node170 	discovery_resolution_rate 	16.666666666667
scalar Network600.node100 	rate_of_requesters 	1
scalar Network600.node100 	number_of_resources 	33000
scalar Network600.node100 	time_period 	4
scalar Network600.node100 	number_of_messages 	20
scalar Network600.node100 	discovery_latency 	4188
scalar Network600.node100 	number_of_desired_resources 	20
scalar Network600.node100 	query_homogenity_rate 	33.333333333333
scalar Network600.node100 	qrecord_time 	14663.664879842
scalar Network600.node100 	discovery_resolution_rate 	33.333333333333
scalar Network600.node510 	rate_of_requesters 	1
scalar Network600.node510 	number_of_resources 	33000
scalar Network600.node510 	time_period 	5
scalar Network600.node510 	number_of_messages 	24
scalar Network600.node510 	discovery_latency 	4224
scalar Network600.node510 	number_of_desired_resources 	20
scalar Network600.node510 	query_homogenity_rate 	33.333333333333
scalar Network600.node510 	qrecord_time 	14673.406641772
scalar Network600.node510 	discovery_resolution_rate 	33.333333333333
scalar Network600.node10 	rate_of_requesters 	1
scalar Network600.node10 	number_of_resources 	33000
scalar Network600.node10 	time_period 	2
scalar Network600.node10 	number_of_messages 	122
scalar Network600.node10 	discovery_latency 	4212
scalar Network600.node10 	number_of_desired_resources 	20
scalar Network600.node10 	query_homogenity_rate 	33.333333333333
scalar Network600.node10 	qrecord_time 	14679.857031019
scalar Network600.node10 	discovery_resolution_rate 	33.333333333333
scalar Network600.node20 	rate_of_requesters 	1
scalar Network600.node20 	number_of_resources 	33000
scalar Network600.node20 	time_period 	5
scalar Network600.node20 	number_of_messages 	27
scalar Network600.node20 	discovery_latency 	3576
scalar Network600.node20 	number_of_desired_resources 	20
scalar Network600.node20 	query_homogenity_rate 	33.333333333333
scalar Network600.node20 	qrecord_time 	14688.590128748
scalar Network600.node20 	discovery_resolution_rate 	66.666666666667
scalar Network600.node410 	rate_of_requesters 	1
scalar Network600.node410 	number_of_resources 	33000
scalar Network600.node410 	time_period 	3
scalar Network600.node410 	number_of_messages 	196
scalar Network600.node410 	discovery_latency 	3816
scalar Network600.node410 	number_of_desired_resources 	20
scalar Network600.node410 	query_homogenity_rate 	33.333333333333
scalar Network600.node410 	qrecord_time 	14765.752631219
scalar Network600.node410 	discovery_resolution_rate 	66.666666666667
scalar Network600.node210 	rate_of_requesters 	1
scalar Network600.node210 	number_of_resources 	33000
scalar Network600.node210 	time_period 	2
scalar Network600.node210 	number_of_messages 	396
scalar Network600.node210 	discovery_latency 	3900
scalar Network600.node210 	number_of_desired_resources 	20
scalar Network600.node210 	query_homogenity_rate 	33.333333333333
scalar Network600.node210 	qrecord_time 	14778.446114603
scalar Network600.node210 	discovery_resolution_rate 	83.333333333333
scalar Network600.node470 	rate_of_requesters 	1
scalar Network600.node470 	number_of_resources 	33000
scalar Network600.node470 	time_period 	2
scalar Network600.node470 	number_of_messages 	138
scalar Network600.node470 	discovery_latency 	4104
scalar Network600.node470 	number_of_desired_resources 	20
scalar Network600.node470 	query_homogenity_rate 	33.333333333333
scalar Network600.node470 	qrecord_time 	14903.650159739
scalar Network600.node470 	discovery_resolution_rate 	66.666666666667
scalar Network600.node520 	rate_of_requesters 	1
scalar Network600.node520 	number_of_resources 	33000
scalar Network600.node520 	time_period 	3
scalar Network600.node520 	number_of_messages 	46
scalar Network600.node520 	discovery_latency 	4290
scalar Network600.node520 	number_of_desired_resources 	20
scalar Network600.node520 	query_homogenity_rate 	33.333333333333
scalar Network600.node520 	qrecord_time 	14940.53626113
scalar Network600.node520 	discovery_resolution_rate 	33.333333333333
scalar Network600.node460 	rate_of_requesters 	1
scalar Network600.node460 	number_of_resources 	33000
scalar Network600.node460 	time_period 	2
scalar Network600.node460 	number_of_messages 	2
scalar Network600.node460 	discovery_latency 	4302
scalar Network600.node460 	number_of_desired_resources 	20
scalar Network600.node460 	query_homogenity_rate 	33.333333333333
scalar Network600.node460 	qrecord_time 	15071.956309592
scalar Network600.node460 	discovery_resolution_rate 	0
scalar Network600.node580 	rate_of_requesters 	1
scalar Network600.node580 	number_of_resources 	33000
scalar Network600.node580 	time_period 	3
scalar Network600.node580 	number_of_messages 	2
scalar Network600.node580 	discovery_latency 	4140
scalar Network600.node580 	number_of_desired_resources 	20
scalar Network600.node580 	query_homogenity_rate 	33.333333333333
scalar Network600.node580 	qrecord_time 	15129.02346242
scalar Network600.node580 	discovery_resolution_rate 	0
scalar Network600.node230 	rate_of_requesters 	1
scalar Network600.node230 	number_of_resources 	33000
scalar Network600.node230 	time_period 	3
scalar Network600.node230 	number_of_messages 	0
scalar Network600.node230 	discovery_latency 	4362
scalar Network600.node230 	number_of_desired_resources 	20
scalar Network600.node230 	query_homogenity_rate 	33.333333333333
scalar Network600.node230 	qrecord_time 	15154.866887541
scalar Network600.node230 	discovery_resolution_rate 	0
scalar Network600.node60 	rate_of_requesters 	1
scalar Network600.node60 	number_of_resources 	33000
scalar Network600.node60 	time_period 	2
scalar Network600.node60 	number_of_messages 	46
scalar Network600.node60 	discovery_latency 	3972
scalar Network600.node60 	number_of_desired_resources 	20
scalar Network600.node60 	query_homogenity_rate 	33.333333333333
scalar Network600.node60 	qrecord_time 	15163.092553372
scalar Network600.node60 	discovery_resolution_rate 	33.333333333333
scalar Network600.node520 	rate_of_requesters 	1
scalar Network600.node520 	number_of_resources 	33000
scalar Network600.node520 	time_period 	4
scalar Network600.node520 	number_of_messages 	0
scalar Network600.node520 	discovery_latency 	4158
scalar Network600.node520 	number_of_desired_resources 	20
scalar Network600.node520 	query_homogenity_rate 	33.333333333333
scalar Network600.node520 	qrecord_time 	15289.752539325
scalar Network600.node520 	discovery_resolution_rate 	0
scalar Network600.node430 	rate_of_requesters 	1
scalar Network600.node430 	number_of_resources 	33000
scalar Network600.node430 	time_period 	5
scalar Network600.node430 	number_of_messages 	2
scalar Network600.node430 	discovery_latency 	4374
scalar Network600.node430 	number_of_desired_resources 	20
scalar Network600.node430 	query_homogenity_rate 	33.333333333333
scalar Network600.node430 	qrecord_time 	15315.359153241
scalar Network600.node430 	discovery_resolution_rate 	0
scalar Network600.node350 	rate_of_requesters 	1
scalar Network600.node350 	number_of_resources 	33000
scalar Network600.node350 	time_period 	2
scalar Network600.node350 	number_of_messages 	8
scalar Network600.node350 	discovery_latency 	4200
scalar Network600.node350 	number_of_desired_resources 	20
scalar Network600.node350 	query_homogenity_rate 	33.333333333333
scalar Network600.node350 	qrecord_time 	15316.994545805
scalar Network600.node350 	discovery_resolution_rate 	33.333333333333
scalar Network600.node110 	rate_of_requesters 	1
scalar Network600.node110 	number_of_resources 	33000
scalar Network600.node110 	time_period 	4
scalar Network600.node110 	number_of_messages 	2
scalar Network600.node110 	discovery_latency 	4206
scalar Network600.node110 	number_of_desired_resources 	20
scalar Network600.node110 	query_homogenity_rate 	33.333333333333
scalar Network600.node110 	qrecord_time 	15362.290039688
scalar Network600.node110 	discovery_resolution_rate 	0
scalar Network600.node60 	rate_of_requesters 	1
scalar Network600.node60 	number_of_resources 	33000
scalar Network600.node60 	time_period 	3
scalar Network600.node60 	number_of_messages 	2
scalar Network600.node60 	discovery_latency 	4338
scalar Network600.node60 	number_of_desired_resources 	20
scalar Network600.node60 	query_homogenity_rate 	33.333333333333
scalar Network600.node60 	qrecord_time 	15533.504464579
scalar Network600.node60 	discovery_resolution_rate 	0
scalar Network600.node330 	rate_of_requesters 	1
scalar Network600.node330 	number_of_resources 	33000
scalar Network600.node330 	time_period 	2
scalar Network600.node330 	number_of_messages 	2
scalar Network600.node330 	discovery_latency 	4314
scalar Network600.node330 	number_of_desired_resources 	20
scalar Network600.node330 	query_homogenity_rate 	33.333333333333
scalar Network600.node330 	qrecord_time 	15541.463280769
[...]
scalar Network600.node0 	rate_of_requesters 	1
scalar Network600.node0 	number_of_resources 	33000
scalar Network600.node0 	time_period 	7
scalar Network600.node0 	number_of_messages 	144
scalar Network600.node0 	discovery_latency 	4080
scalar Network600.node0 	number_of_desired_resources 	20
scalar Network600.node0 	query_homogenity_rate 	33.333333333333
scalar Network600.node0 	qrecord_time 	46328.472199679
scalar Network600.node0 	discovery_resolution_rate 	66.666666666667
scalar Network600.node250 	rate_of_requesters 	1
scalar Network600.node250 	number_of_resources 	33000
scalar Network600.node250 	time_period 	10
scalar Network600.node250 	number_of_messages 	243
scalar Network600.node250 	discovery_latency 	3648
scalar Network600.node250 	number_of_desired_resources 	20
scalar Network600.node250 	query_homogenity_rate 	33.333333333333
scalar Network600.node250 	qrecord_time 	46448.612244108
scalar Network600.node250 	discovery_resolution_rate 	66.666666666667
scalar Network600.node490 	rate_of_requesters 	1
scalar Network600.node490 	number_of_resources 	33000
scalar Network600.node490 	time_period 	7
scalar Network600.node490 	number_of_messages 	375
scalar Network600.node490 	discovery_latency 	3948
scalar Network600.node490 	number_of_desired_resources 	20
scalar Network600.node490 	query_homogenity_rate 	33.333333333333
scalar Network600.node490 	qrecord_time 	46650.823401381
scalar Network600.node490 	discovery_resolution_rate 	83.333333333333
scalar Network600.node400 	rate_of_requesters 	1
scalar Network600.node400 	number_of_resources 	33000
scalar Network600.node400 	time_period 	7
scalar Network600.node400 	number_of_messages 	181
scalar Network600.node400 	discovery_latency 	4254
scalar Network600.node400 	number_of_desired_resources 	20
scalar Network600.node400 	query_homogenity_rate 	33.333333333333
scalar Network600.node400 	qrecord_time 	47182.600586351
scalar Network600.node400 	discovery_resolution_rate 	66.666666666667
scalar Network600.node460 	rate_of_requesters 	1
scalar Network600.node460 	number_of_resources 	33000
scalar Network600.node460 	time_period 	10
scalar Network600.node460 	number_of_messages 	295
scalar Network600.node460 	discovery_latency 	4152
scalar Network600.node460 	number_of_desired_resources 	20
scalar Network600.node460 	query_homogenity_rate 	33.333333333333
scalar Network600.node460 	qrecord_time 	47370.671048129
scalar Network600.node460 	discovery_resolution_rate 	83.333333333333
scalar Network600.node390 	rate_of_requesters 	1
scalar Network600.node390 	number_of_resources 	33000
scalar Network600.node390 	time_period 	9
scalar Network600.node390 	number_of_messages 	172
scalar Network600.node390 	discovery_latency 	2424
scalar Network600.node390 	number_of_desired_resources 	20
scalar Network600.node390 	query_homogenity_rate 	33.333333333333
scalar Network600.node390 	qrecord_time 	47405.77219009
scalar Network600.node390 	discovery_resolution_rate 	100
scalar Network600.node90 	rate_of_requesters 	1
scalar Network600.node90 	number_of_resources 	33000
scalar Network600.node90 	time_period 	8
scalar Network600.node90 	number_of_messages 	125
scalar Network600.node90 	discovery_latency 	2268
scalar Network600.node90 	number_of_desired_resources 	20
scalar Network600.node90 	query_homogenity_rate 	33.333333333333
scalar Network600.node90 	qrecord_time 	48104.699948976
scalar Network600.node90 	discovery_resolution_rate 	100
scalar Network600.node50 	rate_of_requesters 	1
scalar Network600.node50 	number_of_resources 	33000
scalar Network600.node50 	time_period 	10
scalar Network600.node50 	number_of_messages 	198
scalar Network600.node50 	discovery_latency 	3672
scalar Network600.node50 	number_of_desired_resources 	20
scalar Network600.node50 	query_homogenity_rate 	33.333333333333
scalar Network600.node50 	qrecord_time 	48109.588503451
scalar Network600.node50 	discovery_resolution_rate 	83.333333333333
scalar Network600.node510 	rate_of_requesters 	1
scalar Network600.node510 	number_of_resources 	33000
scalar Network600.node510 	time_period 	9
scalar Network600.node510 	number_of_messages 	253
scalar Network600.node510 	discovery_latency 	3600
scalar Network600.node510 	number_of_desired_resources 	20
scalar Network600.node510 	query_homogenity_rate 	33.333333333333
scalar Network600.node510 	qrecord_time 	48229.737844379
scalar Network600.node510 	discovery_resolution_rate 	83.333333333333
scalar Network600.node0 	rate_of_requesters 	1
scalar Network600.node0 	number_of_resources 	33000
scalar Network600.node0 	time_period 	10
scalar Network600.node0 	number_of_messages 	97
scalar Network600.node0 	discovery_latency 	1068
scalar Network600.node0 	number_of_desired_resources 	20
scalar Network600.node0 	query_homogenity_rate 	33.333333333333
scalar Network600.node0 	qrecord_time 	48251.886496432
scalar Network600.node0 	discovery_resolution_rate 	100
scalar Network600.node0 	rate_of_requesters 	1
scalar Network600.node0 	number_of_resources 	33000
scalar Network600.node0 	time_period 	9
scalar Network600.node0 	number_of_messages 	133
scalar Network600.node0 	discovery_latency 	1596
scalar Network600.node0 	number_of_desired_resources 	20
scalar Network600.node0 	query_homogenity_rate 	33.333333333333
scalar Network600.node0 	qrecord_time 	48351.852869598
scalar Network600.node0 	discovery_resolution_rate 	100
scalar Network600.node280 	rate_of_requesters 	1
scalar Network600.node280 	number_of_resources 	33000
scalar Network600.node280 	time_period 	8
scalar Network600.node280 	number_of_messages 	323
scalar Network600.node280 	discovery_latency 	2778
scalar Network600.node280 	number_of_desired_resources 	20
scalar Network600.node280 	query_homogenity_rate 	33.333333333333
scalar Network600.node280 	qrecord_time 	48578.970475353
scalar Network600.node280 	discovery_resolution_rate 	100
scalar Network600.node400 	rate_of_requesters 	1
scalar Network600.node400 	number_of_resources 	33000
scalar Network600.node400 	time_period 	9
scalar Network600.node400 	number_of_messages 	155
scalar Network600.node400 	discovery_latency 	1608
scalar Network600.node400 	number_of_desired_resources 	20
scalar Network600.node400 	query_homogenity_rate 	33.333333333333
scalar Network600.node400 	qrecord_time 	48699.125738048
scalar Network600.node400 	discovery_resolution_rate 	100
scalar Network600.node0 	rate_of_requesters 	1
scalar Network600.node0 	number_of_resources 	33000
scalar Network600.node0 	time_period 	8
scalar Network600.node0 	number_of_messages 	266
scalar Network600.node0 	discovery_latency 	3468
scalar Network600.node0 	number_of_desired_resources 	20
scalar Network600.node0 	query_homogenity_rate 	33.333333333333
scalar Network600.node0 	qrecord_time 	48748.488575259
scalar Network600.node0 	discovery_resolution_rate 	100
scalar Network600.node30 	rate_of_requesters 	1
scalar Network600.node30 	number_of_resources 	33000
scalar Network600.node30 	time_period 	9
scalar Network600.node30 	number_of_messages 	75
scalar Network600.node30 	discovery_latency 	3612
scalar Network600.node30 	number_of_desired_resources 	20
scalar Network600.node30 	query_homogenity_rate 	33.333333333333
scalar Network600.node30 	qrecord_time 	49192.05506917
scalar Network600.node30 	discovery_resolution_rate 	66.666666666667
scalar Network600.node70 	rate_of_requesters 	1
scalar Network600.node70 	number_of_resources 	33000
scalar Network600.node70 	time_period 	10
scalar Network600.node70 	number_of_messages 	232
scalar Network600.node70 	discovery_latency 	4032
scalar Network600.node70 	number_of_desired_resources 	20
scalar Network600.node70 	query_homogenity_rate 	33.333333333333
scalar Network600.node70 	qrecord_time 	49277.120914867
scalar Network600.node70 	discovery_resolution_rate 	50
scalar Network600.node390 	rate_of_requesters 	1
scalar Network600.node390 	number_of_resources 	33000
scalar Network600.node390 	time_period 	10
scalar Network600.node390 	number_of_messages 	65
scalar Network600.node390 	discovery_latency 	3972
scalar Network600.node390 	number_of_desired_resources 	20
scalar Network600.node390 	query_homogenity_rate 	33.333333333333
scalar Network600.node390 	qrecord_time 	49345.464305749
scalar Network600.node390 	discovery_resolution_rate 	66.666666666667
scalar Network600.node400 	rate_of_requesters 	1
scalar Network600.node400 	number_of_resources 	33000
scalar Network600.node400 	time_period 	8
scalar Network600.node400 	number_of_messages 	337
scalar Network600.node400 	discovery_latency 	3984
scalar Network600.node400 	number_of_desired_resources 	20
scalar Network600.node400 	query_homogenity_rate 	33.333333333333
scalar Network600.node400 	qrecord_time 	49548.205715286
scalar Network600.node400 	discovery_resolution_rate 	83.333333333333
scalar Network600.node400 	rate_of_requesters 	1
scalar Network600.node400 	number_of_resources 	33000
scalar Network600.node400 	time_period 	10
scalar Network600.node400 	number_of_messages 	105
scalar Network600.node400 	discovery_latency 	1230
scalar Network600.node400 	number_of_desired_resources 	20
scalar Network600.node400 	query_homogenity_rate 	33.333333333333
scalar Network600.node400 	qrecord_time 	49608.241281565
scalar Network600.node400 	discovery_resolution_rate 	100
scalar Network600.node210 	rate_of_requesters 	1
scalar Network600.node210 	number_of_resources 	33000
scalar Network600.node210 	time_period 	8
scalar Network600.node210 	number_of_messages 	104
scalar Network600.node210 	discovery_latency 	1812
scalar Network600.node210 	number_of_desired_resources 	20
scalar Network600.node210 	query_homogenity_rate 	33.333333333333
scalar Network600.node210 	qrecord_time 	49804.671385148
scalar Network600.node210 	discovery_resolution_rate 	100
scalar Network600.node240 	rate_of_requesters 	1
scalar Network600.node240 	number_of_resources 	33000
scalar Network600.node240 	time_period 	10
scalar Network600.node240 	number_of_messages 	85
scalar Network600.node240 	discovery_latency 	1584
scalar Network600.node240 	number_of_desired_resources 	20
scalar Network600.node240 	query_homogenity_rate 	33.333333333333
scalar Network600.node240 	qrecord_time 	49924.299517568
scalar Network600.node240 	discovery_resolution_rate 	100
scalar Network600.node90 	rate_of_requesters 	1
scalar Network600.node90 	number_of_resources 	33000
scalar Network600.node90 	time_period 	9
scalar Network600.node90 	number_of_messages 	242
scalar Network600.node90 	discovery_latency 	4020
scalar Network600.node90 	number_of_desired_resources 	20
scalar Network600.node90 	query_homogenity_rate 	33.333333333333
scalar Network600.node90 	qrecord_time 	49988.735875275
scalar Network600.node90 	discovery_resolution_rate 	66.666666666667
scalar Network600.node30 	rate_of_requesters 	1
scalar Network600.node30 	number_of_resources 	33000
scalar Network600.node30 	time_period 	10
scalar Network600.node30 	number_of_messages 	83
scalar Network600.node30 	discovery_latency 	732
scalar Network600.node30 	number_of_desired_resources 	20
scalar Network600.node30 	query_homogenity_rate 	33.333333333333
scalar Network600.node30 	qrecord_time 	50205.529738759
scalar Network600.node30 	discovery_resolution_rate 	100
scalar Network600.node10 	rate_of_requesters 	1
scalar Network600.node10 	number_of_resources 	33000
scalar Network600.node10 	time_period 	9
scalar Network600.node10 	number_of_messages 	54
scalar Network600.node10 	discovery_latency 	744
scalar Network600.node10 	number_of_desired_resources 	20
scalar Network600.node10 	query_homogenity_rate 	33.333333333333
scalar Network600.node10 	qrecord_time 	50884.417006155
scalar Network600.node10 	discovery_resolution_rate 	100
scalar Network600.node150 	rate_of_requesters 	1
scalar Network600.node150 	number_of_resources 	33000
scalar Network600.node150 	time_period 	10
scalar Network600.node150 	number_of_messages 	22
scalar Network600.node150 	discovery_latency 	228
scalar Network600.node150 	number_of_desired_resources 	20
scalar Network600.node150 	query_homogenity_rate 	33.333333333333
scalar Network600.node150 	qrecord_time 	51062.026602047
scalar Network600.node150 	discovery_resolution_rate 	100
scalar Network600.node220 	rate_of_requesters 	1
scalar Network600.node220 	number_of_resources 	33000
scalar Network600.node220 	time_period 	9
scalar Network600.node220 	number_of_messages 	104
scalar Network600.node220 	discovery_latency 	672
scalar Network600.node220 	number_of_desired_resources 	20
scalar Network600.node220 	query_homogenity_rate 	33.333333333333
scalar Network600.node220 	qrecord_time 	51110.03080735
scalar Network600.node220 	discovery_resolution_rate 	100
scalar Network600.node150 	rate_of_requesters 	1
scalar Network600.node150 	number_of_resources 	33000
scalar Network600.node150 	time_period 	9
scalar Network600.node150 	number_of_messages 	118
scalar Network600.node150 	discovery_latency 	1716
scalar Network600.node150 	number_of_desired_resources 	20
scalar Network600.node150 	query_homogenity_rate 	33.333333333333
scalar Network600.node150 	qrecord_time 	51118.113305142
scalar Network600.node150 	discovery_resolution_rate 	100
scalar Network600.node40 	rate_of_requesters 	1
scalar Network600.node40 	number_of_resources 	33000
scalar Network600.node40 	time_period 	10
scalar Network600.node40 	number_of_messages 	97
scalar Network600.node40 	discovery_latency 	1500
scalar Network600.node40 	number_of_desired_resources 	20
scalar Network600.node40 	query_homogenity_rate 	33.333333333333
scalar Network600.node40 	qrecord_time 	52689.525151629
scalar Network600.node40 	discovery_resolution_rate 	100
scalar Network600.node310 	rate_of_requesters 	1
scalar Network600.node310 	number_of_resources 	33000
scalar Network600.node310 	time_period 	10
scalar Network600.node310 	number_of_messages 	77
scalar Network600.node310 	discovery_latency 	1344
scalar Network600.node310 	number_of_desired_resources 	20
scalar Network600.node310 	query_homogenity_rate 	33.333333333333
scalar Network600.node310 	qrecord_time 	53337.292558743
scalar Network600.node310 	discovery_resolution_rate 	100
scalar Network600.node90 	rate_of_requesters 	1
scalar Network600.node90 	number_of_resources 	33000
scalar Network600.node90 	time_period 	10
scalar Network600.node90 	number_of_messages 	143
scalar Network600.node90 	discovery_latency 	2040
scalar Network600.node90 	number_of_desired_resources 	20
scalar Network600.node90 	query_homogenity_rate 	33.333333333333
scalar Network600.node90 	qrecord_time 	53374.415031202
scalar Network600.node90 	discovery_resolution_rate 	100
scalar Network600.node280 	rate_of_requesters 	1
scalar Network600.node280 	number_of_resources 	33000
scalar Network600.node280 	time_period 	9
scalar Network600.node280 	number_of_messages 	69
scalar Network600.node280 	discovery_latency 	1080
scalar Network600.node280 	number_of_desired_resources 	20
scalar Network600.node280 	query_homogenity_rate 	33.333333333333
scalar Network600.node280 	qrecord_time 	54037.370519467
scalar Network600.node280 	discovery_resolution_rate 	100
scalar Network600.node210 	rate_of_requesters 	1
scalar Network600.node210 	number_of_resources 	33000
scalar Network600.node210 	time_period 	9
scalar Network600.node210 	number_of_messages 	98
scalar Network600.node210 	discovery_latency 	1272
scalar Network600.node210 	number_of_desired_resources 	20
scalar Network600.node210 	query_homogenity_rate 	33.333333333333
scalar Network600.node210 	qrecord_time 	54288.078733239
scalar Network600.node210 	discovery_resolution_rate 	100
scalar Network600.node210 	rate_of_requesters 	1
scalar Network600.node210 	number_of_resources 	33000
scalar Network600.node210 	time_period 	10
scalar Network600.node210 	number_of_messages 	51
scalar Network600.node210 	discovery_latency 	504
scalar Network600.node210 	number_of_desired_resources 	20
scalar Network600.node210 	query_homogenity_rate 	33.333333333333
scalar Network600.node210 	qrecord_time 	54737.21406935
scalar Network600.node210 	discovery_resolution_rate 	100
scalar Network600.node470 	rate_of_requesters 	1
scalar Network600.node470 	number_of_resources 	33000
scalar Network600.node470 	time_period 	10
scalar Network600.node470 	number_of_messages 	73
scalar Network600.node470 	discovery_latency 	1320
scalar Network600.node470 	number_of_desired_resources 	20
scalar Network600.node470 	query_homogenity_rate 	33.333333333333
scalar Network600.node470 	qrecord_time 	56946.898369253
scalar Network600.node470 	discovery_resolution_rate 	100
scalar Network600.node220 	rate_of_requesters 	1
scalar Network600.node220 	number_of_resources 	33000
scalar Network600.node220 	time_period 	10
scalar Network600.node220 	number_of_messages 	131
scalar Network600.node220 	discovery_latency 	1380
scalar Network600.node220 	number_of_desired_resources 	20
scalar Network600.node220 	query_homogenity_rate 	33.333333333333
scalar Network600.node220 	qrecord_time 	57591.232585295
scalar Network600.node220 	discovery_resolution_rate 	100
scalar Network600.node490 	rate_of_requesters 	1
scalar Network600.node490 	number_of_resources 	33000
scalar Network600.node490 	time_period 	8
scalar Network600.node490 	number_of_messages 	53
scalar Network600.node490 	discovery_latency 	876
scalar Network600.node490 	number_of_desired_resources 	20
scalar Network600.node490 	query_homogenity_rate 	33.333333333333
scalar Network600.node490 	qrecord_time 	59053.321704398
scalar Network600.node490 	discovery_resolution_rate 	100
scalar Network600.node510 	rate_of_requesters 	1
scalar Network600.node510 	number_of_resources 	33000
scalar Network600.node510 	time_period 	10
scalar Network600.node510 	number_of_messages 	59
scalar Network600.node510 	discovery_latency 	588
scalar Network600.node510 	number_of_desired_resources 	20
scalar Network600.node510 	query_homogenity_rate 	33.333333333333
scalar Network600.node510 	qrecord_time 	59743.945652179
scalar Network600.node510 	discovery_resolution_rate 	100
scalar Network600.node280 	rate_of_requesters 	1
scalar Network600.node280 	number_of_resources 	33000
scalar Network600.node280 	time_period 	10
scalar Network600.node280 	number_of_messages 	25
scalar Network600.node280 	discovery_latency 	239.99999999999
scalar Network600.node280 	number_of_desired_resources 	20
scalar Network600.node280 	query_homogenity_rate 	33.333333333333
scalar Network600.node280 	qrecord_time 	63536.843154061
scalar Network600.node280 	discovery_resolution_rate 	100
scalar Network600.node10 	rate_of_requesters 	1
scalar Network600.node10 	number_of_resources 	33000
scalar Network600.node10 	time_period 	10
scalar Network600.node10 	number_of_messages 	54
scalar Network600.node10 	discovery_latency 	984
scalar Network600.node10 	number_of_desired_resources 	20
scalar Network600.node10 	query_homogenity_rate 	33.333333333333
scalar Network600.node10 	qrecord_time 	64003.62350687
scalar Network600.node10 	discovery_resolution_rate 	100
scalar Network600.node490 	rate_of_requesters 	1
scalar Network600.node490 	number_of_resources 	33000
scalar Network600.node490 	time_period 	9
scalar Network600.node490 	number_of_messages 	48
scalar Network600.node490 	discovery_latency 	576.00000000001
scalar Network600.node490 	number_of_desired_resources 	20
scalar Network600.node490 	query_homogenity_rate 	33.333333333333
scalar Network600.node490 	qrecord_time 	69760.902333648
scalar Network600.node490 	discovery_resolution_rate 	100
scalar Network600.node490 	rate_of_requesters 	1
scalar Network600.node490 	number_of_resources 	33000
scalar Network600.node490 	time_period 	10
scalar Network600.node490 	number_of_messages 	67
scalar Network600.node490 	discovery_latency 	864
scalar Network600.node490 	number_of_desired_resources 	20
scalar Network600.node490 	query_homogenity_rate 	33.333333333333
scalar Network600.node490 	qrecord_time 	71545.1545814
scalar Network600.node490 	discovery_resolution_rate 	100
