version 2
run net600-0-20150624-23:21:24-16122
attr as 1
attr configname net600
attr datetime 20150624-23:21:24
attr dnor 20
attr experiment net600
attr inifile omnetpp.ini
attr iterationvars "$rhdrq=3, $dnor=20, $as=1"
attr iterationvars2 "$rhdrq=3, $dnor=20, $as=1, $repetition=0"
attr measurement "$rhdrq=3, $dnor=20, $as=1"
attr network Network600
attr processid 16122
attr repetition 0
attr replication #0
attr resultdir results
attr rhdrq 3
attr runnumber 0
attr seedset 0

scalar . 	as 	1
scalar . 	dnor 	20
scalar . 	rhdrq 	3
scalar Network600.node370 	rate_of_requesters 	1
scalar Network600.node370 	number_of_resources 	33000
scalar Network600.node370 	time_period 	1
scalar Network600.node370 	number_of_messages 	24
scalar Network600.node370 	discovery_latency 	216
scalar Network600.node370 	number_of_desired_resources 	20
scalar Network600.node370 	query_homogenity_rate 	33.333333333333
scalar Network600.node370 	qrecord_time 	4954
scalar Network600.node370 	discovery_resolution_rate 	100
scalar Network600.node550 	rate_of_requesters 	1
scalar Network600.node550 	number_of_resources 	33000
scalar Network600.node550 	time_period 	1
scalar Network600.node550 	number_of_messages 	31
scalar Network600.node550 	discovery_latency 	408
scalar Network600.node550 	number_of_desired_resources 	20
scalar Network600.node550 	query_homogenity_rate 	33.333333333333
scalar Network600.node550 	qrecord_time 	5158
scalar Network600.node550 	discovery_resolution_rate 	100
scalar Network600.node40 	rate_of_requesters 	1
scalar Network600.node40 	number_of_resources 	33000
scalar Network600.node40 	time_period 	1
scalar Network600.node40 	number_of_messages 	13
scalar Network600.node40 	discovery_latency 	3336
scalar Network600.node40 	number_of_desired_resources 	20
scalar Network600.node40 	query_homogenity_rate 	33.333333333333
scalar Network600.node40 	qrecord_time 	8074
scalar Network600.node40 	discovery_resolution_rate 	66.666666666667
scalar Network600.node20 	rate_of_requesters 	1
scalar Network600.node20 	number_of_resources 	33000
scalar Network600.node20 	time_period 	1
scalar Network600.node20 	number_of_messages 	14
scalar Network600.node20 	discovery_latency 	3360
scalar Network600.node20 	number_of_desired_resources 	20
scalar Network600.node20 	query_homogenity_rate 	33.333333333333
scalar Network600.node20 	qrecord_time 	8074
scalar Network600.node20 	discovery_resolution_rate 	66.666666666667
scalar Network600.node480 	rate_of_requesters 	1
scalar Network600.node480 	number_of_resources 	33000
scalar Network600.node480 	time_period 	1
scalar Network600.node480 	number_of_messages 	22
scalar Network600.node480 	discovery_latency 	3396
scalar Network600.node480 	number_of_desired_resources 	20
scalar Network600.node480 	query_homogenity_rate 	33.333333333333
scalar Network600.node480 	qrecord_time 	8116
scalar Network600.node480 	discovery_resolution_rate 	66.666666666667
scalar Network600.node50 	rate_of_requesters 	1
scalar Network600.node50 	number_of_resources 	33000
scalar Network600.node50 	time_period 	1
scalar Network600.node50 	number_of_messages 	19
scalar Network600.node50 	discovery_latency 	3492
scalar Network600.node50 	number_of_desired_resources 	20
scalar Network600.node50 	query_homogenity_rate 	33.333333333333
scalar Network600.node50 	qrecord_time 	8182
scalar Network600.node50 	discovery_resolution_rate 	66.666666666667
scalar Network600.node280 	rate_of_requesters 	1
scalar Network600.node280 	number_of_resources 	33000
scalar Network600.node280 	time_period 	2
scalar Network600.node280 	number_of_messages 	44
scalar Network600.node280 	discovery_latency 	3456
scalar Network600.node280 	number_of_desired_resources 	20
scalar Network600.node280 	query_homogenity_rate 	33.333333333333
scalar Network600.node280 	qrecord_time 	8184.780201304
scalar Network600.node280 	discovery_resolution_rate 	66.666666666667
scalar Network600.node580 	rate_of_requesters 	1
scalar Network600.node580 	number_of_resources 	33000
scalar Network600.node580 	time_period 	1
scalar Network600.node580 	number_of_messages 	10
scalar Network600.node580 	discovery_latency 	3456
scalar Network600.node580 	number_of_desired_resources 	20
scalar Network600.node580 	query_homogenity_rate 	33.333333333333
scalar Network600.node580 	qrecord_time 	8188
scalar Network600.node580 	discovery_resolution_rate 	66.666666666667
scalar Network600.node330 	rate_of_requesters 	1
scalar Network600.node330 	number_of_resources 	33000
scalar Network600.node330 	time_period 	1
scalar Network600.node330 	number_of_messages 	26
scalar Network600.node330 	discovery_latency 	3456
scalar Network600.node330 	number_of_desired_resources 	20
scalar Network600.node330 	query_homogenity_rate 	33.333333333333
scalar Network600.node330 	qrecord_time 	8188
scalar Network600.node330 	discovery_resolution_rate 	66.666666666667
scalar Network600.node450 	rate_of_requesters 	1
scalar Network600.node450 	number_of_resources 	33000
scalar Network600.node450 	time_period 	1
scalar Network600.node450 	number_of_messages 	22
scalar Network600.node450 	discovery_latency 	3432
scalar Network600.node450 	number_of_desired_resources 	20
scalar Network600.node450 	query_homogenity_rate 	33.333333333333
scalar Network600.node450 	qrecord_time 	8200
scalar Network600.node450 	discovery_resolution_rate 	66.666666666667
scalar Network600.node430 	rate_of_requesters 	1
scalar Network600.node430 	number_of_resources 	33000
scalar Network600.node430 	time_period 	2
scalar Network600.node430 	number_of_messages 	8
scalar Network600.node430 	discovery_latency 	3540
scalar Network600.node430 	number_of_desired_resources 	20
scalar Network600.node430 	query_homogenity_rate 	33.333333333333
scalar Network600.node430 	qrecord_time 	8236.156617995
scalar Network600.node430 	discovery_resolution_rate 	33.333333333333
scalar Network600.node520 	rate_of_requesters 	1
scalar Network600.node520 	number_of_resources 	33000
scalar Network600.node520 	time_period 	1
scalar Network600.node520 	number_of_messages 	13
scalar Network600.node520 	discovery_latency 	3552
scalar Network600.node520 	number_of_desired_resources 	20
scalar Network600.node520 	query_homogenity_rate 	33.333333333333
scalar Network600.node520 	qrecord_time 	8242
scalar Network600.node520 	discovery_resolution_rate 	33.333333333333
scalar Network600.node360 	rate_of_requesters 	1
scalar Network600.node360 	number_of_resources 	33000
scalar Network600.node360 	time_period 	1
scalar Network600.node360 	number_of_messages 	8
scalar Network600.node360 	discovery_latency 	3564
scalar Network600.node360 	number_of_desired_resources 	20
scalar Network600.node360 	query_homogenity_rate 	33.333333333333
scalar Network600.node360 	qrecord_time 	8254
scalar Network600.node360 	discovery_resolution_rate 	33.333333333333
scalar Network600.node130 	rate_of_requesters 	1
scalar Network600.node130 	number_of_resources 	33000
scalar Network600.node130 	time_period 	1
scalar Network600.node130 	number_of_messages 	5
scalar Network600.node130 	discovery_latency 	3540
scalar Network600.node130 	number_of_desired_resources 	20
scalar Network600.node130 	query_homogenity_rate 	33.333333333333
scalar Network600.node130 	qrecord_time 	8278
scalar Network600.node130 	discovery_resolution_rate 	33.333333333333
scalar Network600.node430 	rate_of_requesters 	1
scalar Network600.node430 	number_of_resources 	33000
scalar Network600.node430 	time_period 	1
scalar Network600.node430 	number_of_messages 	8
scalar Network600.node430 	discovery_latency 	3600
scalar Network600.node430 	number_of_desired_resources 	20
scalar Network600.node430 	query_homogenity_rate 	33.333333333333
scalar Network600.node430 	qrecord_time 	8296
scalar Network600.node430 	discovery_resolution_rate 	33.333333333333
scalar Network600.node470 	rate_of_requesters 	1
scalar Network600.node470 	number_of_resources 	33000
scalar Network600.node470 	time_period 	1
scalar Network600.node470 	number_of_messages 	5
scalar Network600.node470 	discovery_latency 	3528
scalar Network600.node470 	number_of_desired_resources 	20
scalar Network600.node470 	query_homogenity_rate 	33.333333333333
scalar Network600.node470 	qrecord_time 	8302
scalar Network600.node470 	discovery_resolution_rate 	33.333333333333
scalar Network600.node140 	rate_of_requesters 	1
scalar Network600.node140 	number_of_resources 	33000
scalar Network600.node140 	time_period 	1
scalar Network600.node140 	number_of_messages 	5
scalar Network600.node140 	discovery_latency 	3528
scalar Network600.node140 	number_of_desired_resources 	20
scalar Network600.node140 	query_homogenity_rate 	33.333333333333
scalar Network600.node140 	qrecord_time 	8302
scalar Network600.node140 	discovery_resolution_rate 	33.333333333333
scalar Network600.node390 	rate_of_requesters 	1
scalar Network600.node390 	number_of_resources 	33000
scalar Network600.node390 	time_period 	1
scalar Network600.node390 	number_of_messages 	183
scalar Network600.node390 	discovery_latency 	3576
scalar Network600.node390 	number_of_desired_resources 	20
scalar Network600.node390 	query_homogenity_rate 	33.333333333333
scalar Network600.node390 	qrecord_time 	8302
scalar Network600.node390 	discovery_resolution_rate 	50
scalar Network600.node590 	rate_of_requesters 	1
scalar Network600.node590 	number_of_resources 	33000
scalar Network600.node590 	time_period 	1
scalar Network600.node590 	number_of_messages 	12
scalar Network600.node590 	discovery_latency 	3540
scalar Network600.node590 	number_of_desired_resources 	20
scalar Network600.node590 	query_homogenity_rate 	33.333333333333
scalar Network600.node590 	qrecord_time 	8308
scalar Network600.node590 	discovery_resolution_rate 	33.333333333333
scalar Network600.node400 	rate_of_requesters 	1
scalar Network600.node400 	number_of_resources 	33000
scalar Network600.node400 	time_period 	1
scalar Network600.node400 	number_of_messages 	27
scalar Network600.node400 	discovery_latency 	3684
scalar Network600.node400 	number_of_desired_resources 	20
scalar Network600.node400 	query_homogenity_rate 	33.333333333333
scalar Network600.node400 	qrecord_time 	8326
scalar Network600.node400 	discovery_resolution_rate 	66.666666666667
scalar Network600.node540 	rate_of_requesters 	1
scalar Network600.node540 	number_of_resources 	33000
scalar Network600.node540 	time_period 	1
scalar Network600.node540 	number_of_messages 	26
scalar Network600.node540 	discovery_latency 	3600
scalar Network600.node540 	number_of_desired_resources 	20
scalar Network600.node540 	query_homogenity_rate 	33.333333333333
scalar Network600.node540 	qrecord_time 	8326
scalar Network600.node540 	discovery_resolution_rate 	33.333333333333
scalar Network600.node70 	rate_of_requesters 	1
scalar Network600.node70 	number_of_resources 	33000
scalar Network600.node70 	time_period 	1
scalar Network600.node70 	number_of_messages 	16
scalar Network600.node70 	discovery_latency 	3540
scalar Network600.node70 	number_of_desired_resources 	20
scalar Network600.node70 	query_homogenity_rate 	33.333333333333
scalar Network600.node70 	qrecord_time 	8332
scalar Network600.node70 	discovery_resolution_rate 	66.666666666667
scalar Network600.node0 	rate_of_requesters 	1
scalar Network600.node0 	number_of_resources 	33000
scalar Network600.node0 	time_period 	1
scalar Network600.node0 	number_of_messages 	34
scalar Network600.node0 	discovery_latency 	3588
scalar Network600.node0 	number_of_desired_resources 	20
scalar Network600.node0 	query_homogenity_rate 	33.333333333333
scalar Network600.node0 	qrecord_time 	8332
scalar Network600.node0 	discovery_resolution_rate 	33.333333333333
scalar Network600.node490 	rate_of_requesters 	1
scalar Network600.node490 	number_of_resources 	33000
scalar Network600.node490 	time_period 	1
scalar Network600.node490 	number_of_messages 	34
scalar Network600.node490 	discovery_latency 	3528
scalar Network600.node490 	number_of_desired_resources 	20
scalar Network600.node490 	query_homogenity_rate 	33.333333333333
scalar Network600.node490 	qrecord_time 	8344
scalar Network600.node490 	discovery_resolution_rate 	66.666666666667
scalar Network600.node250 	rate_of_requesters 	1
scalar Network600.node250 	number_of_resources 	33000
scalar Network600.node250 	time_period 	1
scalar Network600.node250 	number_of_messages 	34
scalar Network600.node250 	discovery_latency 	3600
scalar Network600.node250 	number_of_desired_resources 	20
scalar Network600.node250 	query_homogenity_rate 	33.333333333333
scalar Network600.node250 	qrecord_time 	8350
scalar Network600.node250 	discovery_resolution_rate 	33.333333333333
scalar Network600.node460 	rate_of_requesters 	1
scalar Network600.node460 	number_of_resources 	33000
scalar Network600.node460 	time_period 	1
scalar Network600.node460 	number_of_messages 	10
scalar Network600.node460 	discovery_latency 	3600
scalar Network600.node460 	number_of_desired_resources 	20
scalar Network600.node460 	query_homogenity_rate 	33.333333333333
scalar Network600.node460 	qrecord_time 	8350
scalar Network600.node460 	discovery_resolution_rate 	33.333333333333
scalar Network600.node310 	rate_of_requesters 	1
scalar Network600.node310 	number_of_resources 	33000
scalar Network600.node310 	time_period 	1
scalar Network600.node310 	number_of_messages 	8
scalar Network600.node310 	discovery_latency 	3624
scalar Network600.node310 	number_of_desired_resources 	20
scalar Network600.node310 	query_homogenity_rate 	33.333333333333
scalar Network600.node310 	qrecord_time 	8356
scalar Network600.node310 	discovery_resolution_rate 	33.333333333333
scalar Network600.node210 	rate_of_requesters 	1
scalar Network600.node210 	number_of_resources 	33000
scalar Network600.node210 	time_period 	1
scalar Network600.node210 	number_of_messages 	16
scalar Network600.node210 	discovery_latency 	3648
scalar Network600.node210 	number_of_desired_resources 	20
scalar Network600.node210 	query_homogenity_rate 	33.333333333333
scalar Network600.node210 	qrecord_time 	8362
scalar Network600.node210 	discovery_resolution_rate 	33.333333333333
scalar Network600.node570 	rate_of_requesters 	1
scalar Network600.node570 	number_of_resources 	33000
scalar Network600.node570 	time_period 	1
scalar Network600.node570 	number_of_messages 	16
scalar Network600.node570 	discovery_latency 	3648
scalar Network600.node570 	number_of_desired_resources 	20
scalar Network600.node570 	query_homogenity_rate 	33.333333333333
scalar Network600.node570 	qrecord_time 	8362
scalar Network600.node570 	discovery_resolution_rate 	33.333333333333
scalar Network600.node290 	rate_of_requesters 	1
scalar Network600.node290 	number_of_resources 	33000
scalar Network600.node290 	time_period 	1
scalar Network600.node290 	number_of_messages 	5
scalar Network600.node290 	discovery_latency 	3612
scalar Network600.node290 	number_of_desired_resources 	20
scalar Network600.node290 	query_homogenity_rate 	33.333333333333
scalar Network600.node290 	qrecord_time 	8368
scalar Network600.node290 	discovery_resolution_rate 	33.333333333333
scalar Network600.node280 	rate_of_requesters 	1
scalar Network600.node280 	number_of_resources 	33000
scalar Network600.node280 	time_period 	1
scalar Network600.node280 	number_of_messages 	33
scalar Network600.node280 	discovery_latency 	3672
scalar Network600.node280 	number_of_desired_resources 	20
scalar Network600.node280 	query_homogenity_rate 	33.333333333333
scalar Network600.node280 	qrecord_time 	8380
scalar Network600.node280 	discovery_resolution_rate 	66.666666666667
scalar Network600.node200 	rate_of_requesters 	1
scalar Network600.node200 	number_of_resources 	33000
scalar Network600.node200 	time_period 	1
scalar Network600.node200 	number_of_messages 	10
scalar Network600.node200 	discovery_latency 	3624
scalar Network600.node200 	number_of_desired_resources 	20
scalar Network600.node200 	query_homogenity_rate 	33.333333333333
scalar Network600.node200 	qrecord_time 	8404
scalar Network600.node200 	discovery_resolution_rate 	33.333333333333
scalar Network600.node300 	rate_of_requesters 	1
scalar Network600.node300 	number_of_resources 	33000
scalar Network600.node300 	time_period 	1
scalar Network600.node300 	number_of_messages 	21
scalar Network600.node300 	discovery_latency 	3660
scalar Network600.node300 	number_of_desired_resources 	20
scalar Network600.node300 	query_homogenity_rate 	33.333333333333
scalar Network600.node300 	qrecord_time 	8410
scalar Network600.node300 	discovery_resolution_rate 	66.666666666667
scalar Network600.node80 	rate_of_requesters 	1
scalar Network600.node80 	number_of_resources 	33000
scalar Network600.node80 	time_period 	1
scalar Network600.node80 	number_of_messages 	171
scalar Network600.node80 	discovery_latency 	3732
scalar Network600.node80 	number_of_desired_resources 	20
scalar Network600.node80 	query_homogenity_rate 	33.333333333333
scalar Network600.node80 	qrecord_time 	8446
scalar Network600.node80 	discovery_resolution_rate 	50
scalar Network600.node230 	rate_of_requesters 	1
scalar Network600.node230 	number_of_resources 	33000
scalar Network600.node230 	time_period 	1
scalar Network600.node230 	number_of_messages 	2
scalar Network600.node230 	discovery_latency 	3768
scalar Network600.node230 	number_of_desired_resources 	20
scalar Network600.node230 	query_homogenity_rate 	33.333333333333
scalar Network600.node230 	qrecord_time 	8476
scalar Network600.node230 	discovery_resolution_rate 	0
scalar Network600.node320 	rate_of_requesters 	1
scalar Network600.node320 	number_of_resources 	33000
scalar Network600.node320 	time_period 	1
scalar Network600.node320 	number_of_messages 	6
scalar Network600.node320 	discovery_latency 	3720
scalar Network600.node320 	number_of_desired_resources 	20
scalar Network600.node320 	query_homogenity_rate 	33.333333333333
scalar Network600.node320 	qrecord_time 	8488
scalar Network600.node320 	discovery_resolution_rate 	33.333333333333
scalar Network600.node530 	rate_of_requesters 	1
scalar Network600.node530 	number_of_resources 	33000
scalar Network600.node530 	time_period 	1
scalar Network600.node530 	number_of_messages 	2
scalar Network600.node530 	discovery_latency 	3732
scalar Network600.node530 	number_of_desired_resources 	20
scalar Network600.node530 	query_homogenity_rate 	33.333333333333
scalar Network600.node530 	qrecord_time 	8500
scalar Network600.node530 	discovery_resolution_rate 	0
scalar Network600.node240 	rate_of_requesters 	1
scalar Network600.node240 	number_of_resources 	33000
scalar Network600.node240 	time_period 	1
scalar Network600.node240 	number_of_messages 	21
scalar Network600.node240 	discovery_latency 	3744
scalar Network600.node240 	number_of_desired_resources 	20
scalar Network600.node240 	query_homogenity_rate 	33.333333333333
scalar Network600.node240 	qrecord_time 	8506
scalar Network600.node240 	discovery_resolution_rate 	33.333333333333
scalar Network600.node560 	rate_of_requesters 	1
scalar Network600.node560 	number_of_resources 	33000
scalar Network600.node560 	time_period 	1
scalar Network600.node560 	number_of_messages 	2
scalar Network600.node560 	discovery_latency 	3756
scalar Network600.node560 	number_of_desired_resources 	20
scalar Network600.node560 	query_homogenity_rate 	33.333333333333
scalar Network600.node560 	qrecord_time 	8506
scalar Network600.node560 	discovery_resolution_rate 	0
scalar Network600.node270 	rate_of_requesters 	1
scalar Network600.node270 	number_of_resources 	33000
scalar Network600.node270 	time_period 	1
scalar Network600.node270 	number_of_messages 	2
scalar Network600.node270 	discovery_latency 	3756
scalar Network600.node270 	number_of_desired_resources 	20
scalar Network600.node270 	query_homogenity_rate 	33.333333333333
scalar Network600.node270 	qrecord_time 	8506
scalar Network600.node270 	discovery_resolution_rate 	0
scalar Network600.node10 	rate_of_requesters 	1
scalar Network600.node10 	number_of_resources 	33000
scalar Network600.node10 	time_period 	1
scalar Network600.node10 	number_of_messages 	8
scalar Network600.node10 	discovery_latency 	3816
scalar Network600.node10 	number_of_desired_resources 	20
scalar Network600.node10 	query_homogenity_rate 	33.333333333333
scalar Network600.node10 	qrecord_time 	8530
scalar Network600.node10 	discovery_resolution_rate 	33.333333333333
scalar Network600.node170 	rate_of_requesters 	1
scalar Network600.node170 	number_of_resources 	33000
scalar Network600.node170 	time_period 	1
scalar Network600.node170 	number_of_messages 	3
scalar Network600.node170 	discovery_latency 	3840
scalar Network600.node170 	number_of_desired_resources 	20
scalar Network600.node170 	query_homogenity_rate 	33.333333333333
scalar Network600.node170 	qrecord_time 	8536
scalar Network600.node170 	discovery_resolution_rate 	33.333333333333
scalar Network600.node380 	rate_of_requesters 	1
scalar Network600.node380 	number_of_resources 	33000
scalar Network600.node380 	time_period 	1
scalar Network600.node380 	number_of_messages 	2
scalar Network600.node380 	discovery_latency 	3840
scalar Network600.node380 	number_of_desired_resources 	20
scalar Network600.node380 	query_homogenity_rate 	33.333333333333
scalar Network600.node380 	qrecord_time 	8554
scalar Network600.node380 	discovery_resolution_rate 	0
scalar Network600.node510 	rate_of_requesters 	1
scalar Network600.node510 	number_of_resources 	33000
scalar Network600.node510 	time_period 	1
scalar Network600.node510 	number_of_messages 	2
scalar Network600.node510 	discovery_latency 	3840
scalar Network600.node510 	number_of_desired_resources 	20
scalar Network600.node510 	query_homogenity_rate 	33.333333333333
scalar Network600.node510 	qrecord_time 	8554
scalar Network600.node510 	discovery_resolution_rate 	0
scalar Network600.node500 	rate_of_requesters 	1
scalar Network600.node500 	number_of_resources 	33000
scalar Network600.node500 	time_period 	1
scalar Network600.node500 	number_of_messages 	2
scalar Network600.node500 	discovery_latency 	3804
scalar Network600.node500 	number_of_desired_resources 	20
scalar Network600.node500 	query_homogenity_rate 	33.333333333333
scalar Network600.node500 	qrecord_time 	8560
scalar Network600.node500 	discovery_resolution_rate 	0
scalar Network600.node420 	rate_of_requesters 	1
scalar Network600.node420 	number_of_resources 	33000
scalar Network600.node420 	time_period 	1
scalar Network600.node420 	number_of_messages 	2
scalar Network600.node420 	discovery_latency 	3816
scalar Network600.node420 	number_of_desired_resources 	20
scalar Network600.node420 	query_homogenity_rate 	33.333333333333
scalar Network600.node420 	qrecord_time 	8572
scalar Network600.node420 	discovery_resolution_rate 	0
scalar Network600.node150 	rate_of_requesters 	1
scalar Network600.node150 	number_of_resources 	33000
scalar Network600.node150 	time_period 	1
scalar Network600.node150 	number_of_messages 	2
scalar Network600.node150 	discovery_latency 	3888
scalar Network600.node150 	number_of_desired_resources 	20
scalar Network600.node150 	query_homogenity_rate 	33.333333333333
scalar Network600.node150 	qrecord_time 	8578
scalar Network600.node150 	discovery_resolution_rate 	0
scalar Network600.node260 	rate_of_requesters 	1
scalar Network600.node260 	number_of_resources 	33000
scalar Network600.node260 	time_period 	1
scalar Network600.node260 	number_of_messages 	2
scalar Network600.node260 	discovery_latency 	3900
scalar Network600.node260 	number_of_desired_resources 	20
scalar Network600.node260 	query_homogenity_rate 	33.333333333333
scalar Network600.node260 	qrecord_time 	8590
scalar Network600.node260 	discovery_resolution_rate 	0
scalar Network600.node90 	rate_of_requesters 	1
scalar Network600.node90 	number_of_resources 	33000
scalar Network600.node90 	time_period 	1
scalar Network600.node90 	number_of_messages 	13
scalar Network600.node90 	discovery_latency 	3912
scalar Network600.node90 	number_of_desired_resources 	20
scalar Network600.node90 	query_homogenity_rate 	33.333333333333
scalar Network600.node90 	qrecord_time 	8626
scalar Network600.node90 	discovery_resolution_rate 	33.333333333333
scalar Network600.node340 	rate_of_requesters 	1
scalar Network600.node340 	number_of_resources 	33000
scalar Network600.node340 	time_period 	1
scalar Network600.node340 	number_of_messages 	7
scalar Network600.node340 	discovery_latency 	3900
scalar Network600.node340 	number_of_desired_resources 	20
scalar Network600.node340 	query_homogenity_rate 	33.333333333333
scalar Network600.node340 	qrecord_time 	8632
scalar Network600.node340 	discovery_resolution_rate 	33.333333333333
scalar Network600.node350 	rate_of_requesters 	1
scalar Network600.node350 	number_of_resources 	33000
scalar Network600.node350 	time_period 	1
scalar Network600.node350 	number_of_messages 	4
scalar Network600.node350 	discovery_latency 	3888
scalar Network600.node350 	number_of_desired_resources 	20
scalar Network600.node350 	query_homogenity_rate 	33.333333333333
scalar Network600.node350 	qrecord_time 	8638
scalar Network600.node350 	discovery_resolution_rate 	33.333333333333
scalar Network600.node190 	rate_of_requesters 	1
scalar Network600.node190 	number_of_resources 	33000
scalar Network600.node190 	time_period 	1
scalar Network600.node190 	number_of_messages 	2
scalar Network600.node190 	discovery_latency 	3924
scalar Network600.node190 	number_of_desired_resources 	20
scalar Network600.node190 	query_homogenity_rate 	33.333333333333
scalar Network600.node190 	qrecord_time 	8638
scalar Network600.node190 	discovery_resolution_rate 	0
scalar Network600.node110 	rate_of_requesters 	1
scalar Network600.node110 	number_of_resources 	33000
scalar Network600.node110 	time_period 	1
scalar Network600.node110 	number_of_messages 	2
scalar Network600.node110 	discovery_latency 	3852
scalar Network600.node110 	number_of_desired_resources 	20
scalar Network600.node110 	query_homogenity_rate 	33.333333333333
scalar Network600.node110 	qrecord_time 	8650
scalar Network600.node110 	discovery_resolution_rate 	0
scalar Network600.node30 	rate_of_requesters 	1
scalar Network600.node30 	number_of_resources 	33000
scalar Network600.node30 	time_period 	1
scalar Network600.node30 	number_of_messages 	2
scalar Network600.node30 	discovery_latency 	3960
scalar Network600.node30 	number_of_desired_resources 	20
scalar Network600.node30 	query_homogenity_rate 	33.333333333333
scalar Network600.node30 	qrecord_time 	8650
scalar Network600.node30 	discovery_resolution_rate 	0
scalar Network600.node410 	rate_of_requesters 	1
scalar Network600.node410 	number_of_resources 	33000
scalar Network600.node410 	time_period 	1
scalar Network600.node410 	number_of_messages 	0
scalar Network600.node410 	discovery_latency 	3984
scalar Network600.node410 	number_of_desired_resources 	20
scalar Network600.node410 	query_homogenity_rate 	33.333333333333
scalar Network600.node410 	qrecord_time 	8680
scalar Network600.node410 	discovery_resolution_rate 	0
scalar Network600.node440 	rate_of_requesters 	1
scalar Network600.node440 	number_of_resources 	33000
scalar Network600.node440 	time_period 	1
scalar Network600.node440 	number_of_messages 	2
scalar Network600.node440 	discovery_latency 	3948
scalar Network600.node440 	number_of_desired_resources 	20
scalar Network600.node440 	query_homogenity_rate 	33.333333333333
scalar Network600.node440 	qrecord_time 	8698
scalar Network600.node440 	discovery_resolution_rate 	0
scalar Network600.node100 	rate_of_requesters 	1
scalar Network600.node100 	number_of_resources 	33000
scalar Network600.node100 	time_period 	1
scalar Network600.node100 	number_of_messages 	2
scalar Network600.node100 	discovery_latency 	4032
scalar Network600.node100 	number_of_desired_resources 	20
scalar Network600.node100 	query_homogenity_rate 	33.333333333333
scalar Network600.node100 	qrecord_time 	8722
scalar Network600.node100 	discovery_resolution_rate 	0
scalar Network600.node180 	rate_of_requesters 	1
scalar Network600.node180 	number_of_resources 	33000
scalar Network600.node180 	time_period 	1
scalar Network600.node180 	number_of_messages 	2
scalar Network600.node180 	discovery_latency 	3972
scalar Network600.node180 	number_of_desired_resources 	20
scalar Network600.node180 	query_homogenity_rate 	33.333333333333
scalar Network600.node180 	qrecord_time 	8770
scalar Network600.node180 	discovery_resolution_rate 	0
scalar Network600.node120 	rate_of_requesters 	1
scalar Network600.node120 	number_of_resources 	33000
scalar Network600.node120 	time_period 	1
scalar Network600.node120 	number_of_messages 	24
scalar Network600.node120 	discovery_latency 	3984
scalar Network600.node120 	number_of_desired_resources 	20
scalar Network600.node120 	query_homogenity_rate 	33.333333333333
scalar Network600.node120 	qrecord_time 	8776
scalar Network600.node120 	discovery_resolution_rate 	66.666666666667
scalar Network600.node220 	rate_of_requesters 	1
scalar Network600.node220 	number_of_resources 	33000
scalar Network600.node220 	time_period 	1
scalar Network600.node220 	number_of_messages 	9
scalar Network600.node220 	discovery_latency 	4008
scalar Network600.node220 	number_of_desired_resources 	20
scalar Network600.node220 	query_homogenity_rate 	33.333333333333
scalar Network600.node220 	qrecord_time 	8800
scalar Network600.node220 	discovery_resolution_rate 	33.333333333333
scalar Network600.node60 	rate_of_requesters 	1
scalar Network600.node60 	number_of_resources 	33000
scalar Network600.node60 	time_period 	1
scalar Network600.node60 	number_of_messages 	13
scalar Network600.node60 	discovery_latency 	4020
scalar Network600.node60 	number_of_desired_resources 	20
scalar Network600.node60 	query_homogenity_rate 	33.333333333333
scalar Network600.node60 	qrecord_time 	8830
scalar Network600.node60 	discovery_resolution_rate 	33.333333333333
scalar Network600.node160 	rate_of_requesters 	1
scalar Network600.node160 	number_of_resources 	33000
scalar Network600.node160 	time_period 	1
scalar Network600.node160 	number_of_messages 	189
scalar Network600.node160 	discovery_latency 	4116
scalar Network600.node160 	number_of_desired_resources 	20
scalar Network600.node160 	query_homogenity_rate 	33.333333333333
scalar Network600.node160 	qrecord_time 	8866
scalar Network600.node160 	discovery_resolution_rate 	16.666666666667
scalar Network600.node40 	rate_of_requesters 	1
scalar Network600.node40 	number_of_resources 	33000
scalar Network600.node40 	time_period 	2
scalar Network600.node40 	number_of_messages 	2
scalar Network600.node40 	discovery_latency 	3864
scalar Network600.node40 	number_of_desired_resources 	20
scalar Network600.node40 	query_homogenity_rate 	33.333333333333
scalar Network600.node40 	qrecord_time 	8923.609458879
scalar Network600.node40 	discovery_resolution_rate 	0
scalar Network600.node430 	rate_of_requesters 	1
scalar Network600.node430 	number_of_resources 	33000
scalar Network600.node430 	time_period 	3
scalar Network600.node430 	number_of_messages 	0
scalar Network600.node430 	discovery_latency 	3888
scalar Network600.node430 	number_of_desired_resources 	20
scalar Network600.node430 	query_homogenity_rate 	33.333333333333
scalar Network600.node430 	qrecord_time 	8969.497380055
scalar Network600.node430 	discovery_resolution_rate 	0
scalar Network600.node540 	rate_of_requesters 	1
scalar Network600.node540 	number_of_resources 	33000
scalar Network600.node540 	time_period 	2
scalar Network600.node540 	number_of_messages 	2
scalar Network600.node540 	discovery_latency 	4008
scalar Network600.node540 	number_of_desired_resources 	20
scalar Network600.node540 	query_homogenity_rate 	33.333333333333
scalar Network600.node540 	qrecord_time 	8978.086756318
scalar Network600.node540 	discovery_resolution_rate 	0
scalar Network600.node390 	rate_of_requesters 	1
scalar Network600.node390 	number_of_resources 	33000
scalar Network600.node390 	time_period 	2
scalar Network600.node390 	number_of_messages 	2
scalar Network600.node390 	discovery_latency 	3948
scalar Network600.node390 	number_of_desired_resources 	20
scalar Network600.node390 	query_homogenity_rate 	33.333333333333
scalar Network600.node390 	qrecord_time 	9037.256601787
scalar Network600.node390 	discovery_resolution_rate 	0
scalar Network600.node200 	rate_of_requesters 	1
scalar Network600.node200 	number_of_resources 	33000
scalar Network600.node200 	time_period 	2
scalar Network600.node200 	number_of_messages 	2
scalar Network600.node200 	discovery_latency 	3876
scalar Network600.node200 	number_of_desired_resources 	20
scalar Network600.node200 	query_homogenity_rate 	33.333333333333
scalar Network600.node200 	qrecord_time 	9117.215797322
scalar Network600.node200 	discovery_resolution_rate 	0
scalar Network600.node350 	rate_of_requesters 	1
scalar Network600.node350 	number_of_resources 	33000
scalar Network600.node350 	time_period 	2
scalar Network600.node350 	number_of_messages 	2
scalar Network600.node350 	discovery_latency 	3888
scalar Network600.node350 	number_of_desired_resources 	20
scalar Network600.node350 	query_homogenity_rate 	33.333333333333
scalar Network600.node350 	qrecord_time 	9281.980073022
scalar Network600.node350 	discovery_resolution_rate 	0
scalar Network600.node390 	rate_of_requesters 	1
scalar Network600.node390 	number_of_resources 	33000
scalar Network600.node390 	time_period 	3
scalar Network600.node390 	number_of_messages 	83
scalar Network600.node390 	discovery_latency 	3468
scalar Network600.node390 	number_of_desired_resources 	20
scalar Network600.node390 	query_homogenity_rate 	33.333333333333
scalar Network600.node390 	qrecord_time 	9500.316141263
scalar Network600.node390 	discovery_resolution_rate 	33.333333333333
scalar Network600.node580 	rate_of_requesters 	1
scalar Network600.node580 	number_of_resources 	33000
scalar Network600.node580 	time_period 	2
scalar Network600.node580 	number_of_messages 	2
scalar Network600.node580 	discovery_latency 	3936
scalar Network600.node580 	number_of_desired_resources 	20
scalar Network600.node580 	query_homogenity_rate 	33.333333333333
scalar Network600.node580 	qrecord_time 	9604.578797705
scalar Network600.node580 	discovery_resolution_rate 	0
scalar Network600.node580 	rate_of_requesters 	1
scalar Network600.node580 	number_of_resources 	33000
scalar Network600.node580 	time_period 	3
scalar Network600.node580 	number_of_messages 	2
scalar Network600.node580 	discovery_latency 	3912
scalar Network600.node580 	number_of_desired_resources 	20
scalar Network600.node580 	query_homogenity_rate 	33.333333333333
scalar Network600.node580 	qrecord_time 	9606.890369787
scalar Network600.node580 	discovery_resolution_rate 	0
scalar Network600.node60 	rate_of_requesters 	1
scalar Network600.node60 	number_of_resources 	33000
scalar Network600.node60 	time_period 	2
scalar Network600.node60 	number_of_messages 	2
scalar Network600.node60 	discovery_latency 	3924
scalar Network600.node60 	number_of_desired_resources 	20
scalar Network600.node60 	query_homogenity_rate 	33.333333333333
scalar Network600.node60 	qrecord_time 	9685.011644751
scalar Network600.node60 	discovery_resolution_rate 	0
scalar Network600.node140 	rate_of_requesters 	1
scalar Network600.node140 	number_of_resources 	33000
scalar Network600.node140 	time_period 	2
scalar Network600.node140 	number_of_messages 	2
scalar Network600.node140 	discovery_latency 	3888
scalar Network600.node140 	number_of_desired_resources 	20
scalar Network600.node140 	query_homogenity_rate 	33.333333333333
scalar Network600.node140 	qrecord_time 	9795.654039081
scalar Network600.node140 	discovery_resolution_rate 	0
scalar Network600.node90 	rate_of_requesters 	1
scalar Network600.node90 	number_of_resources 	33000
scalar Network600.node90 	time_period 	2
scalar Network600.node90 	number_of_messages 	2
scalar Network600.node90 	discovery_latency 	3936
scalar Network600.node90 	number_of_desired_resources 	20
scalar Network600.node90 	query_homogenity_rate 	33.333333333333
scalar Network600.node90 	qrecord_time 	9804.221185034
scalar Network600.node90 	discovery_resolution_rate 	0
scalar Network600.node450 	rate_of_requesters 	1
scalar Network600.node450 	number_of_resources 	33000
scalar Network600.node450 	time_period 	2
scalar Network600.node450 	number_of_messages 	2
scalar Network600.node450 	discovery_latency 	3768
scalar Network600.node450 	number_of_desired_resources 	20
scalar Network600.node450 	query_homogenity_rate 	33.333333333333
scalar Network600.node450 	qrecord_time 	9806.561127517
scalar Network600.node450 	discovery_resolution_rate 	0
scalar Network600.node150 	rate_of_requesters 	1
scalar Network600.node150 	number_of_resources 	33000
scalar Network600.node150 	time_period 	2
scalar Network600.node150 	number_of_messages 	2
scalar Network600.node150 	discovery_latency 	3828
scalar Network600.node150 	number_of_desired_resources 	20
scalar Network600.node150 	query_homogenity_rate 	33.333333333333
scalar Network600.node150 	qrecord_time 	9830.305297901
scalar Network600.node150 	discovery_resolution_rate 	0
scalar Network600.node440 	rate_of_requesters 	1
scalar Network600.node440 	number_of_resources 	33000
scalar Network600.node440 	time_period 	2
scalar Network600.node440 	number_of_messages 	2
scalar Network600.node440 	discovery_latency 	3888
scalar Network600.node440 	number_of_desired_resources 	20
scalar Network600.node440 	query_homogenity_rate 	33.333333333333
scalar Network600.node440 	qrecord_time 	9858.073949698
scalar Network600.node440 	discovery_resolution_rate 	0
scalar Network600.node410 	rate_of_requesters 	1
scalar Network600.node410 	number_of_resources 	33000
scalar Network600.node410 	time_period 	2
scalar Network600.node410 	number_of_messages 	0
scalar Network600.node410 	discovery_latency 	3960
scalar Network600.node410 	number_of_desired_resources 	20
scalar Network600.node410 	query_homogenity_rate 	33.333333333333
scalar Network600.node410 	qrecord_time 	9859.984291885
scalar Network600.node410 	discovery_resolution_rate 	0
scalar Network600.node20 	rate_of_requesters 	1
scalar Network600.node20 	number_of_resources 	33000
scalar Network600.node20 	time_period 	2
scalar Network600.node20 	number_of_messages 	2
scalar Network600.node20 	discovery_latency 	3756
scalar Network600.node20 	number_of_desired_resources 	20
scalar Network600.node20 	query_homogenity_rate 	33.333333333333
scalar Network600.node20 	qrecord_time 	9873.096823786
scalar Network600.node20 	discovery_resolution_rate 	0
scalar Network600.node480 	rate_of_requesters 	1
scalar Network600.node480 	number_of_resources 	33000
scalar Network600.node480 	time_period 	2
scalar Network600.node480 	number_of_messages 	0
scalar Network600.node480 	discovery_latency 	3984
scalar Network600.node480 	number_of_desired_resources 	20
scalar Network600.node480 	query_homogenity_rate 	33.333333333333
scalar Network600.node480 	qrecord_time 	10054.802636125
scalar Network600.node480 	discovery_resolution_rate 	0
scalar Network600.node410 	rate_of_requesters 	1
scalar Network600.node410 	number_of_resources 	33000
scalar Network600.node410 	time_period 	3
scalar Network600.node410 	number_of_messages 	0
scalar Network600.node410 	discovery_latency 	3888
scalar Network600.node410 	number_of_desired_resources 	20
scalar Network600.node410 	query_homogenity_rate 	33.333333333333
scalar Network600.node410 	qrecord_time 	10139.98397745
scalar Network600.node410 	discovery_resolution_rate 	0
scalar Network600.node40 	rate_of_requesters 	1
scalar Network600.node40 	number_of_resources 	33000
scalar Network600.node40 	time_period 	3
scalar Network600.node40 	number_of_messages 	45
scalar Network600.node40 	discovery_latency 	3816
scalar Network600.node40 	number_of_desired_resources 	20
scalar Network600.node40 	query_homogenity_rate 	33.333333333333
scalar Network600.node40 	qrecord_time 	10345.542588351
scalar Network600.node40 	discovery_resolution_rate 	33.333333333333
scalar Network600.node410 	rate_of_requesters 	1
scalar Network600.node410 	number_of_resources 	33000
scalar Network600.node410 	time_period 	4
scalar Network600.node410 	number_of_messages 	0
scalar Network600.node410 	discovery_latency 	4092
scalar Network600.node410 	number_of_desired_resources 	20
scalar Network600.node410 	query_homogenity_rate 	33.333333333333
scalar Network600.node410 	qrecord_time 	10567.290951345
scalar Network600.node410 	discovery_resolution_rate 	0
scalar Network600.node470 	rate_of_requesters 	1
scalar Network600.node470 	number_of_resources 	33000
scalar Network600.node470 	time_period 	2
scalar Network600.node470 	number_of_messages 	2
scalar Network600.node470 	discovery_latency 	3912
scalar Network600.node470 	number_of_desired_resources 	20
scalar Network600.node470 	query_homogenity_rate 	33.333333333333
scalar Network600.node470 	qrecord_time 	10579.984229055
scalar Network600.node470 	discovery_resolution_rate 	0
scalar Network600.node250 	rate_of_requesters 	1
scalar Network600.node250 	number_of_resources 	33000
scalar Network600.node250 	time_period 	2
scalar Network600.node250 	number_of_messages 	2
scalar Network600.node250 	discovery_latency 	3900
scalar Network600.node250 	number_of_desired_resources 	20
scalar Network600.node250 	query_homogenity_rate 	33.333333333333
scalar Network600.node250 	qrecord_time 	10669.956483875
scalar Network600.node250 	discovery_resolution_rate 	0
scalar Network600.node580 	rate_of_requesters 	1
scalar Network600.node580 	number_of_resources 	33000
scalar Network600.node580 	time_period 	4
scalar Network600.node580 	number_of_messages 	2
scalar Network600.node580 	discovery_latency 	3972
scalar Network600.node580 	number_of_desired_resources 	20
scalar Network600.node580 	query_homogenity_rate 	33.333333333333
scalar Network600.node580 	qrecord_time 	10690.43359413
scalar Network600.node580 	discovery_resolution_rate 	0
scalar Network600.node240 	rate_of_requesters 	1
scalar Network600.node240 	number_of_resources 	33000
scalar Network600.node240 	time_period 	2
scalar Network600.node240 	number_of_messages 	2
scalar Network600.node240 	discovery_latency 	3804
scalar Network600.node240 	number_of_desired_resources 	20
scalar Network600.node240 	query_homogenity_rate 	33.333333333333
scalar Network600.node240 	qrecord_time 	10727.413926531
scalar Network600.node240 	discovery_resolution_rate 	0
scalar Network600.node370 	rate_of_requesters 	1
scalar Network600.node370 	number_of_resources 	33000
scalar Network600.node370 	time_period 	2
scalar Network600.node370 	number_of_messages 	19
scalar Network600.node370 	discovery_latency 	3840
scalar Network600.node370 	number_of_desired_resources 	20
scalar Network600.node370 	query_homogenity_rate 	33.333333333333
scalar Network600.node370 	qrecord_time 	10791.071656698
scalar Network600.node370 	discovery_resolution_rate 	33.333333333333
scalar Network600.node290 	rate_of_requesters 	1
scalar Network600.node290 	number_of_resources 	33000
scalar Network600.node290 	time_period 	2
scalar Network600.node290 	number_of_messages 	2
scalar Network600.node290 	discovery_latency 	3840
scalar Network600.node290 	number_of_desired_resources 	20
scalar Network600.node290 	query_homogenity_rate 	33.333333333333
scalar Network600.node290 	qrecord_time 	10846.954922896
scalar Network600.node290 	discovery_resolution_rate 	0
scalar Network600.node280 	rate_of_requesters 	1
scalar Network600.node280 	number_of_resources 	33000
scalar Network600.node280 	time_period 	3
scalar Network600.node280 	number_of_messages 	121
scalar Network600.node280 	discovery_latency 	3564
scalar Network600.node280 	number_of_desired_resources 	20
scalar Network600.node280 	query_homogenity_rate 	33.333333333333
scalar Network600.node280 	qrecord_time 	10862.00412098
scalar Network600.node280 	discovery_resolution_rate 	33.333333333333
scalar Network600.node460 	rate_of_requesters 	1
scalar Network600.node460 	number_of_resources 	33000
scalar Network600.node460 	time_period 	2
scalar Network600.node460 	number_of_messages 	2
scalar Network600.node460 	discovery_latency 	3960
scalar Network600.node460 	number_of_desired_resources 	20
scalar Network600.node460 	query_homogenity_rate 	33.333333333333
scalar Network600.node460 	qrecord_time 	10879.767105655
scalar Network600.node460 	discovery_resolution_rate 	0
scalar Network600.node490 	rate_of_requesters 	1
scalar Network600.node490 	number_of_resources 	33000
scalar Network600.node490 	time_period 	2
scalar Network600.node490 	number_of_messages 	2
scalar Network600.node490 	discovery_latency 	3936
scalar Network600.node490 	number_of_desired_resources 	20
scalar Network600.node490 	query_homogenity_rate 	33.333333333333
scalar Network600.node490 	qrecord_time 	10897.260394861
scalar Network600.node490 	discovery_resolution_rate 	0
scalar Network600.node430 	rate_of_requesters 	1
scalar Network600.node430 	number_of_resources 	33000
scalar Network600.node430 	time_period 	4
scalar Network600.node430 	number_of_messages 	0
scalar Network600.node430 	discovery_latency 	3948
scalar Network600.node430 	number_of_desired_resources 	20
scalar Network600.node430 	query_homogenity_rate 	33.333333333333
scalar Network600.node430 	qrecord_time 	10904.442126368
scalar Network600.node430 	discovery_resolution_rate 	0
scalar Network600.node300 	rate_of_requesters 	1
scalar Network600.node300 	number_of_resources 	33000
scalar Network600.node300 	time_period 	2
scalar Network600.node300 	number_of_messages 	2
scalar Network600.node300 	discovery_latency 	3768
scalar Network600.node300 	number_of_desired_resources 	20
scalar Network600.node300 	query_homogenity_rate 	33.333333333333
scalar Network600.node300 	qrecord_time 	10942.051598374
scalar Network600.node300 	discovery_resolution_rate 	0
scalar Network600.node470 	rate_of_requesters 	1
scalar Network600.node470 	number_of_resources 	33000
scalar Network600.node470 	time_period 	3
scalar Network600.node470 	number_of_messages 	2
scalar Network600.node470 	discovery_latency 	3804
scalar Network600.node470 	number_of_desired_resources 	20
scalar Network600.node470 	query_homogenity_rate 	33.333333333333
scalar Network600.node470 	qrecord_time 	10975.83760275
scalar Network600.node470 	discovery_resolution_rate 	0
scalar Network600.node10 	rate_of_requesters 	1
scalar Network600.node10 	number_of_resources 	33000
scalar Network600.node10 	time_period 	2
scalar Network600.node10 	number_of_messages 	2
scalar Network600.node10 	discovery_latency 	3912
scalar Network600.node10 	number_of_desired_resources 	20
scalar Network600.node10 	query_homogenity_rate 	33.333333333333
scalar Network600.node10 	qrecord_time 	11151.251557876
scalar Network600.node10 	discovery_resolution_rate 	0
scalar Network600.node210 	rate_of_requesters 	1
scalar Network600.node210 	number_of_resources 	33000
scalar Network600.node210 	time_period 	2
scalar Network600.node210 	number_of_messages 	2
scalar Network600.node210 	discovery_latency 	3948
scalar Network600.node210 	number_of_desired_resources 	20
scalar Network600.node210 	query_homogenity_rate 	33.333333333333
scalar Network600.node210 	qrecord_time 	11225.663854679
scalar Network600.node210 	discovery_resolution_rate 	0
scalar Network600.node240 	rate_of_requesters 	1
scalar Network600.node240 	number_of_resources 	33000
scalar Network600.node240 	time_period 	3
scalar Network600.node240 	number_of_messages 	2
scalar Network600.node240 	discovery_latency 	3948
scalar Network600.node240 	number_of_desired_resources 	20
scalar Network600.node240 	query_homogenity_rate 	33.333333333333
scalar Network600.node240 	qrecord_time 	11333.231441604
scalar Network600.node240 	discovery_resolution_rate 	0
scalar Network600.node440 	rate_of_requesters 	1
scalar Network600.node440 	number_of_resources 	33000
scalar Network600.node440 	time_period 	3
scalar Network600.node440 	number_of_messages 	2
scalar Network600.node440 	discovery_latency 	3852
scalar Network600.node440 	number_of_desired_resources 	20
scalar Network600.node440 	query_homogenity_rate 	33.333333333333
scalar Network600.node440 	qrecord_time 	11519.99550968
scalar Network600.node440 	discovery_resolution_rate 	0
scalar Network600.node30 	rate_of_requesters 	1
scalar Network600.node30 	number_of_resources 	33000
scalar Network600.node30 	time_period 	2
scalar Network600.node30 	number_of_messages 	103
scalar Network600.node30 	discovery_latency 	3600
scalar Network600.node30 	number_of_desired_resources 	20
scalar Network600.node30 	query_homogenity_rate 	33.333333333333
scalar Network600.node30 	qrecord_time 	11594.942111888
scalar Network600.node30 	discovery_resolution_rate 	33.333333333333
scalar Network600.node330 	rate_of_requesters 	1
scalar Network600.node330 	number_of_resources 	33000
scalar Network600.node330 	time_period 	2
scalar Network600.node330 	number_of_messages 	2
scalar Network600.node330 	discovery_latency 	4044
scalar Network600.node330 	number_of_desired_resources 	20
scalar Network600.node330 	query_homogenity_rate 	33.333333333333
scalar Network600.node330 	qrecord_time 	11600.038689106
scalar Network600.node330 	discovery_resolution_rate 	0
scalar Network600.node460 	rate_of_requesters 	1
scalar Network600.node460 	number_of_resources 	33000
scalar Network600.node460 	time_period 	3
scalar Network600.node460 	number_of_messages 	2
scalar Network600.node460 	discovery_latency 	4032
scalar Network600.node460 	number_of_desired_resources 	20
scalar Network600.node460 	query_homogenity_rate 	33.333333333333
scalar Network600.node460 	qrecord_time 	11707.73280338
scalar Network600.node460 	discovery_resolution_rate 	0
scalar Network600.node390 	rate_of_requesters 	1
scalar Network600.node390 	number_of_resources 	33000
scalar Network600.node390 	time_period 	4
scalar Network600.node390 	number_of_messages 	2
scalar Network600.node390 	discovery_latency 	3996
scalar Network600.node390 	number_of_desired_resources 	20
scalar Network600.node390 	query_homogenity_rate 	33.333333333333
scalar Network600.node390 	qrecord_time 	11913.906219842
scalar Network600.node390 	discovery_resolution_rate 	0
scalar Network600.node330 	rate_of_requesters 	1
scalar Network600.node330 	number_of_resources 	33000
scalar Network600.node330 	time_period 	3
scalar Network600.node330 	number_of_messages 	2
scalar Network600.node330 	discovery_latency 	4080
scalar Network600.node330 	number_of_desired_resources 	20
scalar Network600.node330 	query_homogenity_rate 	33.333333333333
scalar Network600.node330 	qrecord_time 	11919.818622512
scalar Network600.node330 	discovery_resolution_rate 	0
scalar Network600.node480 	rate_of_requesters 	1
scalar Network600.node480 	number_of_resources 	33000
scalar Network600.node480 	time_period 	4
scalar Network600.node480 	number_of_messages 	53
scalar Network600.node480 	discovery_latency 	3948
scalar Network600.node480 	number_of_desired_resources 	20
scalar Network600.node480 	query_homogenity_rate 	33.333333333333
scalar Network600.node480 	qrecord_time 	12045.1119529
scalar Network600.node480 	discovery_resolution_rate 	33.333333333333
scalar Network600.node480 	rate_of_requesters 	1
scalar Network600.node480 	number_of_resources 	33000
scalar Network600.node480 	time_period 	3
scalar Network600.node480 	number_of_messages 	0
scalar Network600.node480 	discovery_latency 	3996
scalar Network600.node480 	number_of_desired_resources 	20
scalar Network600.node480 	query_homogenity_rate 	33.333333333333
scalar Network600.node480 	qrecord_time 	12087.690939765
scalar Network600.node480 	discovery_resolution_rate 	0
scalar Network600.node440 	rate_of_requesters 	1
scalar Network600.node440 	number_of_resources 	33000
scalar Network600.node440 	time_period 	4
scalar Network600.node440 	number_of_messages 	114
scalar Network600.node440 	discovery_latency 	3732
scalar Network600.node440 	number_of_desired_resources 	20
scalar Network600.node440 	query_homogenity_rate 	33.333333333333
scalar Network600.node440 	qrecord_time 	12211.360429882
scalar Network600.node440 	discovery_resolution_rate 	33.333333333333
scalar Network600.node470 	rate_of_requesters 	1
scalar Network600.node470 	number_of_resources 	33000
scalar Network600.node470 	time_period 	4
scalar Network600.node470 	number_of_messages 	2
scalar Network600.node470 	discovery_latency 	3864
scalar Network600.node470 	number_of_desired_resources 	20
scalar Network600.node470 	query_homogenity_rate 	33.333333333333
scalar Network600.node470 	qrecord_time 	12357.002402095
scalar Network600.node470 	discovery_resolution_rate 	0
scalar Network600.node60 	rate_of_requesters 	1
scalar Network600.node60 	number_of_resources 	33000
scalar Network600.node60 	time_period 	3
scalar Network600.node60 	number_of_messages 	2
scalar Network600.node60 	discovery_latency 	3936
scalar Network600.node60 	number_of_desired_resources 	20
scalar Network600.node60 	query_homogenity_rate 	33.333333333333
scalar Network600.node60 	qrecord_time 	12429.240367354
scalar Network600.node60 	discovery_resolution_rate 	0
scalar Network600.node440 	rate_of_requesters 	1
scalar Network600.node440 	number_of_resources 	33000
scalar Network600.node440 	time_period 	5
scalar Network600.node440 	number_of_messages 	85
scalar Network600.node440 	discovery_latency 	3552
scalar Network600.node440 	number_of_desired_resources 	20
scalar Network600.node440 	query_homogenity_rate 	33.333333333333
scalar Network600.node440 	qrecord_time 	12449.837706622
scalar Network600.node440 	discovery_resolution_rate 	33.333333333333
scalar Network600.node320 	rate_of_requesters 	1
scalar Network600.node320 	number_of_resources 	33000
scalar Network600.node320 	time_period 	2
scalar Network600.node320 	number_of_messages 	39
scalar Network600.node320 	discovery_latency 	3780
scalar Network600.node320 	number_of_desired_resources 	20
scalar Network600.node320 	query_homogenity_rate 	33.333333333333
scalar Network600.node320 	qrecord_time 	12593.934704392
scalar Network600.node320 	discovery_resolution_rate 	33.333333333333
scalar Network600.node500 	rate_of_requesters 	1
scalar Network600.node500 	number_of_resources 	33000
scalar Network600.node500 	time_period 	2
scalar Network600.node500 	number_of_messages 	2
scalar Network600.node500 	discovery_latency 	3888
scalar Network600.node500 	number_of_desired_resources 	20
scalar Network600.node500 	query_homogenity_rate 	33.333333333333
scalar Network600.node500 	qrecord_time 	12659.48831351
scalar Network600.node500 	discovery_resolution_rate 	0
scalar Network600.node520 	rate_of_requesters 	1
scalar Network600.node520 	number_of_resources 	33000
scalar Network600.node520 	time_period 	2
scalar Network600.node520 	number_of_messages 	2
scalar Network600.node520 	discovery_latency 	3756
scalar Network600.node520 	number_of_desired_resources 	20
scalar Network600.node520 	query_homogenity_rate 	33.333333333333
scalar Network600.node520 	qrecord_time 	12673.561468527
scalar Network600.node520 	discovery_resolution_rate 	0
scalar Network600.node370 	rate_of_requesters 	1
scalar Network600.node370 	number_of_resources 	33000
scalar Network600.node370 	time_period 	3
scalar Network600.node370 	number_of_messages 	2
scalar Network600.node370 	discovery_latency 	3804
scalar Network600.node370 	number_of_desired_resources 	20
scalar Network600.node370 	query_homogenity_rate 	33.333333333333
scalar Network600.node370 	qrecord_time 	12681.80329489
scalar Network600.node370 	discovery_resolution_rate 	0
scalar Network600.node360 	rate_of_requesters 	1
scalar Network600.node360 	number_of_resources 	33000
scalar Network600.node360 	time_period 	2
scalar Network600.node360 	number_of_messages 	56
scalar Network600.node360 	discovery_latency 	3588
scalar Network600.node360 	number_of_desired_resources 	20
scalar Network600.node360 	query_homogenity_rate 	33.333333333333
scalar Network600.node360 	qrecord_time 	12683.945587088
scalar Network600.node360 	discovery_resolution_rate 	33.333333333333
scalar Network600.node240 	rate_of_requesters 	1
scalar Network600.node240 	number_of_resources 	33000
scalar Network600.node240 	time_period 	4
scalar Network600.node240 	number_of_messages 	2
scalar Network600.node240 	discovery_latency 	3864
scalar Network600.node240 	number_of_desired_resources 	20
scalar Network600.node240 	query_homogenity_rate 	33.333333333333
scalar Network600.node240 	qrecord_time 	12688.404946997
scalar Network600.node240 	discovery_resolution_rate 	0
scalar Network600.node20 	rate_of_requesters 	1
scalar Network600.node20 	number_of_resources 	33000
scalar Network600.node20 	time_period 	3
scalar Network600.node20 	number_of_messages 	23
scalar Network600.node20 	discovery_latency 	3672
scalar Network600.node20 	number_of_desired_resources 	20
scalar Network600.node20 	query_homogenity_rate 	33.333333333333
scalar Network600.node20 	qrecord_time 	12695.424295663
scalar Network600.node20 	discovery_resolution_rate 	33.333333333333
scalar Network600.node210 	rate_of_requesters 	1
scalar Network600.node210 	number_of_resources 	33000
scalar Network600.node210 	time_period 	3
scalar Network600.node210 	number_of_messages 	2
scalar Network600.node210 	discovery_latency 	3972
scalar Network600.node210 	number_of_desired_resources 	20
scalar Network600.node210 	query_homogenity_rate 	33.333333333333
scalar Network600.node210 	qrecord_time 	12738.219498029
scalar Network600.node210 	discovery_resolution_rate 	0
scalar Network600.node30 	rate_of_requesters 	1
scalar Network600.node30 	number_of_resources 	33000
scalar Network600.node30 	time_period 	3
scalar Network600.node30 	number_of_messages 	2
scalar Network600.node30 	discovery_latency 	3948
scalar Network600.node30 	number_of_desired_resources 	20
scalar Network600.node30 	query_homogenity_rate 	33.333333333333
scalar Network600.node30 	qrecord_time 	12769.876162156
scalar Network600.node30 	discovery_resolution_rate 	0
scalar Network600.node280 	rate_of_requesters 	1
scalar Network600.node280 	number_of_resources 	33000
scalar Network600.node280 	time_period 	4
scalar Network600.node280 	number_of_messages 	74
scalar Network600.node280 	discovery_latency 	3552
scalar Network600.node280 	number_of_desired_resources 	20
scalar Network600.node280 	query_homogenity_rate 	33.333333333333
scalar Network600.node280 	qrecord_time 	13046.886259035
scalar Network600.node280 	discovery_resolution_rate 	66.666666666667
scalar Network600.node150 	rate_of_requesters 	1
scalar Network600.node150 	number_of_resources 	33000
scalar Network600.node150 	time_period 	3
scalar Network600.node150 	number_of_messages 	112
scalar Network600.node150 	discovery_latency 	3588
scalar Network600.node150 	number_of_desired_resources 	20
scalar Network600.node150 	query_homogenity_rate 	33.333333333333
scalar Network600.node150 	qrecord_time 	13133.811052502
scalar Network600.node150 	discovery_resolution_rate 	66.666666666667
scalar Network600.node100 	rate_of_requesters 	1
scalar Network600.node100 	number_of_resources 	33000
scalar Network600.node100 	time_period 	2
scalar Network600.node100 	number_of_messages 	158
scalar Network600.node100 	discovery_latency 	3912
scalar Network600.node100 	number_of_desired_resources 	20
scalar Network600.node100 	query_homogenity_rate 	33.333333333333
scalar Network600.node100 	qrecord_time 	13147.78649323
scalar Network600.node100 	discovery_resolution_rate 	33.333333333333
scalar Network600.node40 	rate_of_requesters 	1
scalar Network600.node40 	number_of_resources 	33000
scalar Network600.node40 	time_period 	4
scalar Network600.node40 	number_of_messages 	2
scalar Network600.node40 	discovery_latency 	4020
scalar Network600.node40 	number_of_desired_resources 	20
scalar Network600.node40 	query_homogenity_rate 	33.333333333333
scalar Network600.node40 	qrecord_time 	13171.034007317
scalar Network600.node40 	discovery_resolution_rate 	0
scalar Network600.node450 	rate_of_requesters 	1
scalar Network600.node450 	number_of_resources 	33000
scalar Network600.node450 	time_period 	3
scalar Network600.node450 	number_of_messages 	80
scalar Network600.node450 	discovery_latency 	3624
scalar Network600.node450 	number_of_desired_resources 	20
scalar Network600.node450 	query_homogenity_rate 	33.333333333333
scalar Network600.node450 	qrecord_time 	13225.394146859
scalar Network600.node450 	discovery_resolution_rate 	33.333333333333
scalar Network600.node190 	rate_of_requesters 	1
scalar Network600.node190 	number_of_resources 	33000
scalar Network600.node190 	time_period 	2
scalar Network600.node190 	number_of_messages 	101
scalar Network600.node190 	discovery_latency 	3948
scalar Network600.node190 	number_of_desired_resources 	20
scalar Network600.node190 	query_homogenity_rate 	33.333333333333
scalar Network600.node190 	qrecord_time 	13268.907712812
scalar Network600.node190 	discovery_resolution_rate 	33.333333333333
scalar Network600.node30 	rate_of_requesters 	1
scalar Network600.node30 	number_of_resources 	33000
scalar Network600.node30 	time_period 	4
scalar Network600.node30 	number_of_messages 	79
scalar Network600.node30 	discovery_latency 	3600
scalar Network600.node30 	number_of_desired_resources 	20
scalar Network600.node30 	query_homogenity_rate 	33.333333333333
scalar Network600.node30 	qrecord_time 	13356.744977042
scalar Network600.node30 	discovery_resolution_rate 	33.333333333333
scalar Network600.node470 	rate_of_requesters 	1
scalar Network600.node470 	number_of_resources 	33000
scalar Network600.node470 	time_period 	5
scalar Network600.node470 	number_of_messages 	2
scalar Network600.node470 	discovery_latency 	3864
scalar Network600.node470 	number_of_desired_resources 	20
scalar Network600.node470 	query_homogenity_rate 	33.333333333333
scalar Network600.node470 	qrecord_time 	13461.945016114
scalar Network600.node470 	discovery_resolution_rate 	0
scalar Network600.node20 	rate_of_requesters 	1
scalar Network600.node20 	number_of_resources 	33000
scalar Network600.node20 	time_period 	4
scalar Network600.node20 	number_of_messages 	2
scalar Network600.node20 	discovery_latency 	3828
scalar Network600.node20 	number_of_desired_resources 	20
scalar Network600.node20 	query_homogenity_rate 	33.333333333333
scalar Network600.node20 	qrecord_time 	13565.149094987
scalar Network600.node20 	discovery_resolution_rate 	0
scalar Network600.node320 	rate_of_requesters 	1
scalar Network600.node320 	number_of_resources 	33000
scalar Network600.node320 	time_period 	3
scalar Network600.node320 	number_of_messages 	2
scalar Network600.node320 	discovery_latency 	4032
scalar Network600.node320 	number_of_desired_resources 	20
scalar Network600.node320 	query_homogenity_rate 	33.333333333333
scalar Network600.node320 	qrecord_time 	13666.222916993
scalar Network600.node320 	discovery_resolution_rate 	0
scalar Network600.node360 	rate_of_requesters 	1
scalar Network600.node360 	number_of_resources 	33000
scalar Network600.node360 	time_period 	3
scalar Network600.node360 	number_of_messages 	88
scalar Network600.node360 	discovery_latency 	3564
scalar Network600.node360 	number_of_desired_resources 	20
scalar Network600.node360 	query_homogenity_rate 	33.333333333333
scalar Network600.node360 	qrecord_time 	13796.447148956
scalar Network600.node360 	discovery_resolution_rate 	33.333333333333
scalar Network600.node150 	rate_of_requesters 	1
scalar Network600.node150 	number_of_resources 	33000
scalar Network600.node150 	time_period 	4
scalar Network600.node150 	number_of_messages 	2
scalar Network600.node150 	discovery_latency 	4116
scalar Network600.node150 	number_of_desired_resources 	20
scalar Network600.node150 	query_homogenity_rate 	33.333333333333
scalar Network600.node150 	qrecord_time 	13804.315635126
scalar Network600.node150 	discovery_resolution_rate 	0
scalar Network600.node200 	rate_of_requesters 	1
scalar Network600.node200 	number_of_resources 	33000
scalar Network600.node200 	time_period 	3
scalar Network600.node200 	number_of_messages 	73
scalar Network600.node200 	discovery_latency 	3528
scalar Network600.node200 	number_of_desired_resources 	20
scalar Network600.node200 	query_homogenity_rate 	33.333333333333
scalar Network600.node200 	qrecord_time 	14124.246199265
scalar Network600.node200 	discovery_resolution_rate 	33.333333333333
scalar Network600.node280 	rate_of_requesters 	1
scalar Network600.node280 	number_of_resources 	33000
scalar Network600.node280 	time_period 	5
scalar Network600.node280 	number_of_messages 	76
scalar Network600.node280 	discovery_latency 	3624
scalar Network600.node280 	number_of_desired_resources 	20
scalar Network600.node280 	query_homogenity_rate 	33.333333333333
scalar Network600.node280 	qrecord_time 	14139.448350099
scalar Network600.node280 	discovery_resolution_rate 	33.333333333333
scalar Network600.node430 	rate_of_requesters 	1
scalar Network600.node430 	number_of_resources 	33000
scalar Network600.node430 	time_period 	5
scalar Network600.node430 	number_of_messages 	0
scalar Network600.node430 	discovery_latency 	4008
scalar Network600.node430 	number_of_desired_resources 	20
scalar Network600.node430 	query_homogenity_rate 	33.333333333333
scalar Network600.node430 	qrecord_time 	14152.412441122
scalar Network600.node430 	discovery_resolution_rate 	0
scalar Network600.node300 	rate_of_requesters 	1
scalar Network600.node300 	number_of_resources 	33000
scalar Network600.node300 	time_period 	4
scalar Network600.node300 	number_of_messages 	47
scalar Network600.node300 	discovery_latency 	3624
scalar Network600.node300 	number_of_desired_resources 	20
scalar Network600.node300 	query_homogenity_rate 	33.333333333333
scalar Network600.node300 	qrecord_time 	14160.498324103
scalar Network600.node300 	discovery_resolution_rate 	33.333333333333
scalar Network600.node500 	rate_of_requesters 	1
scalar Network600.node500 	number_of_resources 	33000
scalar Network600.node500 	time_period 	3
scalar Network600.node500 	number_of_messages 	48
scalar Network600.node500 	discovery_latency 	3552
scalar Network600.node500 	number_of_desired_resources 	20
scalar Network600.node500 	query_homogenity_rate 	33.333333333333
scalar Network600.node500 	qrecord_time 	14171.718891601
scalar Network600.node500 	discovery_resolution_rate 	33.333333333333
scalar Network600.node80 	rate_of_requesters 	1
scalar Network600.node80 	number_of_resources 	33000
scalar Network600.node80 	time_period 	2
scalar Network600.node80 	number_of_messages 	2
scalar Network600.node80 	discovery_latency 	3936
scalar Network600.node80 	number_of_desired_resources 	20
scalar Network600.node80 	query_homogenity_rate 	33.333333333333
scalar Network600.node80 	qrecord_time 	14233.856294788
scalar Network600.node80 	discovery_resolution_rate 	0
scalar Network600.node160 	rate_of_requesters 	1
scalar Network600.node160 	number_of_resources 	33000
scalar Network600.node160 	time_period 	2
scalar Network600.node160 	number_of_messages 	76
scalar Network600.node160 	discovery_latency 	3528
scalar Network600.node160 	number_of_desired_resources 	20
scalar Network600.node160 	query_homogenity_rate 	33.333333333333
scalar Network600.node160 	qrecord_time 	14257.364091754
scalar Network600.node160 	discovery_resolution_rate 	66.666666666667
scalar Network600.node50 	rate_of_requesters 	1
scalar Network600.node50 	number_of_resources 	33000
scalar Network600.node50 	time_period 	2
scalar Network600.node50 	number_of_messages 	115
scalar Network600.node50 	discovery_latency 	4104
scalar Network600.node50 	number_of_desired_resources 	20
scalar Network600.node50 	query_homogenity_rate 	33.333333333333
scalar Network600.node50 	qrecord_time 	14264.1106448
scalar Network600.node50 	discovery_resolution_rate 	33.333333333333
scalar Network600.node300 	rate_of_requesters 	1
scalar Network600.node300 	number_of_resources 	33000
scalar Network600.node300 	time_period 	3
scalar Network600.node300 	number_of_messages 	2
scalar Network600.node300 	discovery_latency 	3756
scalar Network600.node300 	number_of_desired_resources 	20
scalar Network600.node300 	query_homogenity_rate 	33.333333333333
scalar Network600.node300 	qrecord_time 	14276.819404724
scalar Network600.node300 	discovery_resolution_rate 	0
scalar Network600.node270 	rate_of_requesters 	1
scalar Network600.node270 	number_of_resources 	33000
scalar Network600.node270 	time_period 	2
scalar Network600.node270 	number_of_messages 	124
scalar Network600.node270 	discovery_latency 	3672
scalar Network600.node270 	number_of_desired_resources 	20
scalar Network600.node270 	query_homogenity_rate 	33.333333333333
scalar Network600.node270 	qrecord_time 	14311.465121652
scalar Network600.node270 	discovery_resolution_rate 	33.333333333333
scalar Network600.node560 	rate_of_requesters 	1
scalar Network600.node560 	number_of_resources 	33000
scalar Network600.node560 	time_period 	2
scalar Network600.node560 	number_of_messages 	165
scalar Network600.node560 	discovery_latency 	3660
scalar Network600.node560 	number_of_desired_resources 	20
scalar Network600.node560 	query_homogenity_rate 	33.333333333333
scalar Network600.node560 	qrecord_time 	14314.011995554
scalar Network600.node560 	discovery_resolution_rate 	66.666666666667
scalar Network600.node480 	rate_of_requesters 	1
scalar Network600.node480 	number_of_resources 	33000
scalar Network600.node480 	time_period 	5
scalar Network600.node480 	number_of_messages 	8
scalar Network600.node480 	discovery_latency 	3720
scalar Network600.node480 	number_of_desired_resources 	20
scalar Network600.node480 	query_homogenity_rate 	33.333333333333
scalar Network600.node480 	qrecord_time 	14317.481397699
scalar Network600.node480 	discovery_resolution_rate 	33.333333333333
scalar Network600.node530 	rate_of_requesters 	1
scalar Network600.node530 	number_of_resources 	33000
scalar Network600.node530 	time_period 	2
scalar Network600.node530 	number_of_messages 	99
scalar Network600.node530 	discovery_latency 	3492
scalar Network600.node530 	number_of_desired_resources 	20
scalar Network600.node530 	query_homogenity_rate 	33.333333333333
scalar Network600.node530 	qrecord_time 	14320.537693617
scalar Network600.node530 	discovery_resolution_rate 	33.333333333333
scalar Network600.node230 	rate_of_requesters 	1
scalar Network600.node230 	number_of_resources 	33000
scalar Network600.node230 	time_period 	2
scalar Network600.node230 	number_of_messages 	137
scalar Network600.node230 	discovery_latency 	3528
scalar Network600.node230 	number_of_desired_resources 	20
scalar Network600.node230 	query_homogenity_rate 	33.333333333333
scalar Network600.node230 	qrecord_time 	14343.183129513
scalar Network600.node230 	discovery_resolution_rate 	66.666666666667
scalar Network600.node60 	rate_of_requesters 	1
scalar Network600.node60 	number_of_resources 	33000
scalar Network600.node60 	time_period 	4
scalar Network600.node60 	number_of_messages 	127
scalar Network600.node60 	discovery_latency 	4080
scalar Network600.node60 	number_of_desired_resources 	20
scalar Network600.node60 	query_homogenity_rate 	33.333333333333
scalar Network600.node60 	qrecord_time 	14365.425825236
scalar Network600.node60 	discovery_resolution_rate 	33.333333333333
scalar Network600.node290 	rate_of_requesters 	1
scalar Network600.node290 	number_of_resources 	33000
scalar Network600.node290 	time_period 	3
scalar Network600.node290 	number_of_messages 	2
scalar Network600.node290 	discovery_latency 	3744
scalar Network600.node290 	number_of_desired_resources 	20
scalar Network600.node290 	query_homogenity_rate 	33.333333333333
scalar Network600.node290 	qrecord_time 	14420.244416623
scalar Network600.node290 	discovery_resolution_rate 	0
scalar Network600.node100 	rate_of_requesters 	1
scalar Network600.node100 	number_of_resources 	33000
scalar Network600.node100 	time_period 	3
scalar Network600.node100 	number_of_messages 	278
scalar Network600.node100 	discovery_latency 	3552
scalar Network600.node100 	number_of_desired_resources 	20
scalar Network600.node100 	query_homogenity_rate 	33.333333333333
scalar Network600.node100 	qrecord_time 	14432.651551392
scalar Network600.node100 	discovery_resolution_rate 	83.333333333333
scalar Network600.node390 	rate_of_requesters 	1
scalar Network600.node390 	number_of_resources 	33000
scalar Network600.node390 	time_period 	5
scalar Network600.node390 	number_of_messages 	95
scalar Network600.node390 	discovery_latency 	3984
scalar Network600.node390 	number_of_desired_resources 	20
scalar Network600.node390 	query_homogenity_rate 	33.333333333333
scalar Network600.node390 	qrecord_time 	14632.636777562
scalar Network600.node390 	discovery_resolution_rate 	33.333333333333
scalar Network600.node410 	rate_of_requesters 	1
scalar Network600.node410 	number_of_resources 	33000
scalar Network600.node410 	time_period 	5
scalar Network600.node410 	number_of_messages 	394
scalar Network600.node410 	discovery_latency 	3528
scalar Network600.node410 	number_of_desired_resources 	20
scalar Network600.node410 	query_homogenity_rate 	33.333333333333
scalar Network600.node410 	qrecord_time 	14658.732863714
scalar Network600.node410 	discovery_resolution_rate 	83.333333333333
scalar Network600.node490 	rate_of_requesters 	1
scalar Network600.node490 	number_of_resources 	33000
scalar Network600.node490 	time_period 	3
scalar Network600.node490 	number_of_messages 	2
scalar Network600.node490 	discovery_latency 	3960
scalar Network600.node490 	number_of_desired_resources 	20
scalar Network600.node490 	query_homogenity_rate 	33.333333333333
scalar Network600.node490 	qrecord_time 	14737.387288451
scalar Network600.node490 	discovery_resolution_rate 	0
scalar Network600.node80 	rate_of_requesters 	1
scalar Network600.node80 	number_of_resources 	33000
scalar Network600.node80 	time_period 	3
scalar Network600.node80 	number_of_messages 	2
scalar Network600.node80 	discovery_latency 	3984
scalar Network600.node80 	number_of_desired_resources 	20
scalar Network600.node80 	query_homogenity_rate 	33.333333333333
scalar Network600.node80 	qrecord_time 	14900.515760225
scalar Network600.node80 	discovery_resolution_rate 	0
scalar Network600.node400 	rate_of_requesters 	1
scalar Network600.node400 	number_of_resources 	33000
scalar Network600.node400 	time_period 	2
scalar Network600.node400 	number_of_messages 	187
scalar Network600.node400 	discovery_latency 	3588
scalar Network600.node400 	number_of_desired_resources 	20
scalar Network600.node400 	query_homogenity_rate 	33.333333333333
scalar Network600.node400 	qrecord_time 	14949.921252898
scalar Network600.node400 	discovery_resolution_rate 	50
scalar Network600.node410 	rate_of_requesters 	1
scalar Network600.node410 	number_of_resources 	33000
scalar Network600.node410 	time_period 	6
scalar Network600.node410 	number_of_messages 	144
scalar Network600.node410 	discovery_latency 	3540
scalar Network600.node410 	number_of_desired_resources 	20
scalar Network600.node410 	query_homogenity_rate 	33.333333333333
scalar Network600.node410 	qrecord_time 	15030.5636859
scalar Network600.node410 	discovery_resolution_rate 	66.666666666667
scalar Network600.node190 	rate_of_requesters 	1
scalar Network600.node190 	number_of_resources 	33000
scalar Network600.node190 	time_period 	3
scalar Network600.node190 	number_of_messages 	39
scalar Network600.node190 	discovery_latency 	3492
scalar Network600.node190 	number_of_desired_resources 	20
scalar Network600.node190 	query_homogenity_rate 	33.333333333333
scalar Network600.node190 	qrecord_time 	15031.757915863
scalar Network600.node190 	discovery_resolution_rate 	33.333333333333
scalar Network600.node180 	rate_of_requesters 	1
scalar Network600.node180 	number_of_resources 	33000
scalar Network600.node180 	time_period 	2
scalar Network600.node180 	number_of_messages 	37
scalar Network600.node180 	discovery_latency 	3600
scalar Network600.node180 	number_of_desired_resources 	20
scalar Network600.node180 	query_homogenity_rate 	33.333333333333
scalar Network600.node180 	qrecord_time 	15192.504524967
scalar Network600.node180 	discovery_resolution_rate 	33.333333333333
scalar Network600.node590 	rate_of_requesters 	1
scalar Network600.node590 	number_of_resources 	33000
scalar Network600.node590 	time_period 	2
scalar Network600.node590 	number_of_messages 	126
scalar Network600.node590 	discovery_latency 	3384
scalar Network600.node590 	number_of_desired_resources 	20
scalar Network600.node590 	query_homogenity_rate 	33.333333333333
scalar Network600.node590 	qrecord_time 	15227.892375912
scalar Network600.node590 	discovery_resolution_rate 	33.333333333333
scalar Network600.node310 	rate_of_requesters 	1
scalar Network600.node310 	number_of_resources 	33000
scalar Network600.node310 	time_period 	2
scalar Network600.node310 	number_of_messages 	121
scalar Network600.node310 	discovery_latency 	3576
scalar Network600.node310 	number_of_desired_resources 	20
scalar Network600.node310 	query_homogenity_rate 	33.333333333333
scalar Network600.node310 	qrecord_time 	15516.845951263
scalar Network600.node310 	discovery_resolution_rate 	66.666666666667
scalar Network600.node270 	rate_of_requesters 	1
scalar Network600.node270 	number_of_resources 	33000
scalar Network600.node270 	time_period 	3
scalar Network600.node270 	number_of_messages 	151
scalar Network600.node270 	discovery_latency 	3936
scalar Network600.node270 	number_of_desired_resources 	20
scalar Network600.node270 	query_homogenity_rate 	33.333333333333
scalar Network600.node270 	qrecord_time 	15591.338452438
scalar Network600.node270 	discovery_resolution_rate 	33.333333333333
scalar Network600.node180 	rate_of_requesters 	1
scalar Network600.node180 	number_of_resources 	33000
scalar Network600.node180 	time_period 	3
scalar Network600.node180 	number_of_messages 	86
scalar Network600.node180 	discovery_latency 	3396
scalar Network600.node180 	number_of_desired_resources 	20
scalar Network600.node180 	query_homogenity_rate 	33.333333333333
scalar Network600.node180 	qrecord_time 	15592.752446804
scalar Network600.node180 	discovery_resolution_rate 	33.333333333333
scalar Network600.node220 	rate_of_requesters 	1
scalar Network600.node220 	number_of_resources 	33000
scalar Network600.node220 	time_period 	2
scalar Network600.node220 	number_of_messages 	20
scalar Network600.node220 	discovery_latency 	3852
scalar Network600.node220 	number_of_desired_resources 	20
scalar Network600.node220 	query_homogenity_rate 	33.333333333333
scalar Network600.node220 	qrecord_time 	15598.363762664
scalar Network600.node220 	discovery_resolution_rate 	33.333333333333
scalar Network600.node450 	rate_of_requesters 	1
scalar Network600.node450 	number_of_resources 	33000
scalar Network600.node450 	time_period 	4
scalar Network600.node450 	number_of_messages 	217
scalar Network600.node450 	discovery_latency 	3600
scalar Network600.node450 	number_of_desired_resources 	20
scalar Network600.node450 	query_homogenity_rate 	33.333333333333
scalar Network600.node450 	qrecord_time 	15688.349451081
scalar Network600.node450 	discovery_resolution_rate 	66.666666666667
scalar Network600.node130 	rate_of_requesters 	1
scalar Network600.node130 	number_of_resources 	33000
scalar Network600.node130 	time_period 	2
scalar Network600.node130 	number_of_messages 	7
scalar Network600.node130 	discovery_latency 	3612
scalar Network600.node130 	number_of_desired_resources 	20
scalar Network600.node130 	query_homogenity_rate 	33.333333333333
scalar Network600.node130 	qrecord_time 	15708.319010982
scalar Network600.node130 	discovery_resolution_rate 	33.333333333333
scalar Network600.node10 	rate_of_requesters 	1
scalar Network600.node10 	number_of_resources 	33000
scalar Network600.node10 	time_period 	3
scalar Network600.node10 	number_of_messages 	164
scalar Network600.node10 	discovery_latency 	3816
scalar Network600.node10 	number_of_desired_resources 	20
scalar Network600.node10 	query_homogenity_rate 	33.333333333333
[...]
scalar Network600.node530 	rate_of_requesters 	1
scalar Network600.node530 	number_of_resources 	33000
scalar Network600.node530 	time_period 	8
scalar Network600.node530 	number_of_messages 	275
scalar Network600.node530 	discovery_latency 	3528
scalar Network600.node530 	number_of_desired_resources 	20
scalar Network600.node530 	query_homogenity_rate 	33.333333333333
scalar Network600.node530 	qrecord_time 	49931.607860109
scalar Network600.node530 	discovery_resolution_rate 	83.333333333333
scalar Network600.node120 	rate_of_requesters 	1
scalar Network600.node120 	number_of_resources 	33000
scalar Network600.node120 	time_period 	10
scalar Network600.node120 	number_of_messages 	81
scalar Network600.node120 	discovery_latency 	3348
scalar Network600.node120 	number_of_desired_resources 	20
scalar Network600.node120 	query_homogenity_rate 	33.333333333333
scalar Network600.node120 	qrecord_time 	49940.933905026
scalar Network600.node120 	discovery_resolution_rate 	66.666666666667
scalar Network600.node490 	rate_of_requesters 	1
scalar Network600.node490 	number_of_resources 	33000
scalar Network600.node490 	time_period 	10
scalar Network600.node490 	number_of_messages 	177
scalar Network600.node490 	discovery_latency 	1968
scalar Network600.node490 	number_of_desired_resources 	20
scalar Network600.node490 	query_homogenity_rate 	33.333333333333
scalar Network600.node490 	qrecord_time 	50318.947947722
scalar Network600.node490 	discovery_resolution_rate 	100
scalar Network600.node220 	rate_of_requesters 	1
scalar Network600.node220 	number_of_resources 	33000
scalar Network600.node220 	time_period 	9
scalar Network600.node220 	number_of_messages 	65
scalar Network600.node220 	discovery_latency 	540.00000000001
scalar Network600.node220 	number_of_desired_resources 	20
scalar Network600.node220 	query_homogenity_rate 	33.333333333333
scalar Network600.node220 	qrecord_time 	50452.518564313
scalar Network600.node220 	discovery_resolution_rate 	100
scalar Network600.node570 	rate_of_requesters 	1
scalar Network600.node570 	number_of_resources 	33000
scalar Network600.node570 	time_period 	10
scalar Network600.node570 	number_of_messages 	10
scalar Network600.node570 	discovery_latency 	3696
scalar Network600.node570 	number_of_desired_resources 	20
scalar Network600.node570 	query_homogenity_rate 	33.333333333333
scalar Network600.node570 	qrecord_time 	50638.121831434
scalar Network600.node570 	discovery_resolution_rate 	33.333333333333
scalar Network600.node500 	rate_of_requesters 	1
scalar Network600.node500 	number_of_resources 	33000
scalar Network600.node500 	time_period 	9
scalar Network600.node500 	number_of_messages 	19
scalar Network600.node500 	discovery_latency 	3516
scalar Network600.node500 	number_of_desired_resources 	20
scalar Network600.node500 	query_homogenity_rate 	33.333333333333
scalar Network600.node500 	qrecord_time 	50960.948222205
scalar Network600.node500 	discovery_resolution_rate 	66.666666666667
scalar Network600.node550 	rate_of_requesters 	1
scalar Network600.node550 	number_of_resources 	33000
scalar Network600.node550 	time_period 	10
scalar Network600.node550 	number_of_messages 	197
scalar Network600.node550 	discovery_latency 	3492
scalar Network600.node550 	number_of_desired_resources 	20
scalar Network600.node550 	query_homogenity_rate 	33.333333333333
scalar Network600.node550 	qrecord_time 	51023.716806491
scalar Network600.node550 	discovery_resolution_rate 	50
scalar Network600.node500 	rate_of_requesters 	1
scalar Network600.node500 	number_of_resources 	33000
scalar Network600.node500 	time_period 	10
scalar Network600.node500 	number_of_messages 	236
scalar Network600.node500 	discovery_latency 	3240
scalar Network600.node500 	number_of_desired_resources 	20
scalar Network600.node500 	query_homogenity_rate 	33.333333333333
scalar Network600.node500 	qrecord_time 	51270.192140531
scalar Network600.node500 	discovery_resolution_rate 	100
scalar Network600.node190 	rate_of_requesters 	1
scalar Network600.node190 	number_of_resources 	33000
scalar Network600.node190 	time_period 	10
scalar Network600.node190 	number_of_messages 	170
scalar Network600.node190 	discovery_latency 	3480
scalar Network600.node190 	number_of_desired_resources 	20
scalar Network600.node190 	query_homogenity_rate 	33.333333333333
scalar Network600.node190 	qrecord_time 	51511.408755494
scalar Network600.node190 	discovery_resolution_rate 	50
scalar Network600.node580 	rate_of_requesters 	1
scalar Network600.node580 	number_of_resources 	33000
scalar Network600.node580 	time_period 	9
scalar Network600.node580 	number_of_messages 	54
scalar Network600.node580 	discovery_latency 	3576
scalar Network600.node580 	number_of_desired_resources 	20
scalar Network600.node580 	query_homogenity_rate 	33.333333333333
scalar Network600.node580 	qrecord_time 	51686.580371798
scalar Network600.node580 	discovery_resolution_rate 	66.666666666667
scalar Network600.node320 	rate_of_requesters 	1
scalar Network600.node320 	number_of_resources 	33000
scalar Network600.node320 	time_period 	8
scalar Network600.node320 	number_of_messages 	136
scalar Network600.node320 	discovery_latency 	1608
scalar Network600.node320 	number_of_desired_resources 	20
scalar Network600.node320 	query_homogenity_rate 	33.333333333333
scalar Network600.node320 	qrecord_time 	51899.829579794
scalar Network600.node320 	discovery_resolution_rate 	100
scalar Network600.node420 	rate_of_requesters 	1
scalar Network600.node420 	number_of_resources 	33000
scalar Network600.node420 	time_period 	10
scalar Network600.node420 	number_of_messages 	51
scalar Network600.node420 	discovery_latency 	540
scalar Network600.node420 	number_of_desired_resources 	20
scalar Network600.node420 	query_homogenity_rate 	33.333333333333
scalar Network600.node420 	qrecord_time 	52072.94018932
scalar Network600.node420 	discovery_resolution_rate 	100
scalar Network600.node360 	rate_of_requesters 	1
scalar Network600.node360 	number_of_resources 	33000
scalar Network600.node360 	time_period 	10
scalar Network600.node360 	number_of_messages 	167
scalar Network600.node360 	discovery_latency 	2784
scalar Network600.node360 	number_of_desired_resources 	20
scalar Network600.node360 	query_homogenity_rate 	33.333333333333
scalar Network600.node360 	qrecord_time 	52109.340893998
scalar Network600.node360 	discovery_resolution_rate 	100
scalar Network600.node420 	rate_of_requesters 	1
scalar Network600.node420 	number_of_resources 	33000
scalar Network600.node420 	time_period 	9
scalar Network600.node420 	number_of_messages 	307
scalar Network600.node420 	discovery_latency 	3504
scalar Network600.node420 	number_of_desired_resources 	20
scalar Network600.node420 	query_homogenity_rate 	33.333333333333
scalar Network600.node420 	qrecord_time 	52233.773089038
scalar Network600.node420 	discovery_resolution_rate 	100
scalar Network600.node450 	rate_of_requesters 	1
scalar Network600.node450 	number_of_resources 	33000
scalar Network600.node450 	time_period 	10
scalar Network600.node450 	number_of_messages 	269
scalar Network600.node450 	discovery_latency 	3048
scalar Network600.node450 	number_of_desired_resources 	20
scalar Network600.node450 	query_homogenity_rate 	33.333333333333
scalar Network600.node450 	qrecord_time 	52288.438200468
scalar Network600.node450 	discovery_resolution_rate 	100
scalar Network600.node220 	rate_of_requesters 	1
scalar Network600.node220 	number_of_resources 	33000
scalar Network600.node220 	time_period 	10
scalar Network600.node220 	number_of_messages 	39
scalar Network600.node220 	discovery_latency 	3432
scalar Network600.node220 	number_of_desired_resources 	20
scalar Network600.node220 	query_homogenity_rate 	33.333333333333
scalar Network600.node220 	qrecord_time 	53896.564057521
scalar Network600.node220 	discovery_resolution_rate 	66.666666666667
scalar Network600.node270 	rate_of_requesters 	1
scalar Network600.node270 	number_of_resources 	33000
scalar Network600.node270 	time_period 	10
scalar Network600.node270 	number_of_messages 	335
scalar Network600.node270 	discovery_latency 	3576
scalar Network600.node270 	number_of_desired_resources 	20
scalar Network600.node270 	query_homogenity_rate 	33.333333333333
scalar Network600.node270 	qrecord_time 	53994.282764462
scalar Network600.node270 	discovery_resolution_rate 	100
scalar Network600.node530 	rate_of_requesters 	1
scalar Network600.node530 	number_of_resources 	33000
scalar Network600.node530 	time_period 	9
scalar Network600.node530 	number_of_messages 	309
scalar Network600.node530 	discovery_latency 	3504
scalar Network600.node530 	number_of_desired_resources 	20
scalar Network600.node530 	query_homogenity_rate 	33.333333333333
scalar Network600.node530 	qrecord_time 	54452.58844071
scalar Network600.node530 	discovery_resolution_rate 	100
scalar Network600.node150 	rate_of_requesters 	1
scalar Network600.node150 	number_of_resources 	33000
scalar Network600.node150 	time_period 	10
scalar Network600.node150 	number_of_messages 	155
scalar Network600.node150 	discovery_latency 	2232
scalar Network600.node150 	number_of_desired_resources 	20
scalar Network600.node150 	query_homogenity_rate 	33.333333333333
scalar Network600.node150 	qrecord_time 	55096.832725617
scalar Network600.node150 	discovery_resolution_rate 	100
scalar Network600.node320 	rate_of_requesters 	1
scalar Network600.node320 	number_of_resources 	33000
scalar Network600.node320 	time_period 	10
scalar Network600.node320 	number_of_messages 	71
scalar Network600.node320 	discovery_latency 	1008
scalar Network600.node320 	number_of_desired_resources 	20
scalar Network600.node320 	query_homogenity_rate 	33.333333333333
scalar Network600.node320 	qrecord_time 	55997.901813145
scalar Network600.node320 	discovery_resolution_rate 	100
scalar Network600.node320 	rate_of_requesters 	1
scalar Network600.node320 	number_of_resources 	33000
scalar Network600.node320 	time_period 	9
scalar Network600.node320 	number_of_messages 	169
scalar Network600.node320 	discovery_latency 	1992
scalar Network600.node320 	number_of_desired_resources 	20
scalar Network600.node320 	query_homogenity_rate 	33.333333333333
scalar Network600.node320 	qrecord_time 	56063.73582576
scalar Network600.node320 	discovery_resolution_rate 	100
scalar Network600.node580 	rate_of_requesters 	1
scalar Network600.node580 	number_of_resources 	33000
scalar Network600.node580 	time_period 	10
scalar Network600.node580 	number_of_messages 	94
scalar Network600.node580 	discovery_latency 	1164
scalar Network600.node580 	number_of_desired_resources 	20
scalar Network600.node580 	query_homogenity_rate 	33.333333333333
scalar Network600.node580 	qrecord_time 	56324.8985821
scalar Network600.node580 	discovery_resolution_rate 	100
scalar Network600.node70 	rate_of_requesters 	1
scalar Network600.node70 	number_of_resources 	33000
scalar Network600.node70 	time_period 	6
scalar Network600.node70 	number_of_messages 	156
scalar Network600.node70 	discovery_latency 	3096
scalar Network600.node70 	number_of_desired_resources 	20
scalar Network600.node70 	query_homogenity_rate 	33.333333333333
scalar Network600.node70 	qrecord_time 	56454.577241074
scalar Network600.node70 	discovery_resolution_rate 	100
scalar Network600.node260 	rate_of_requesters 	1
scalar Network600.node260 	number_of_resources 	33000
scalar Network600.node260 	time_period 	9
scalar Network600.node260 	number_of_messages 	130
scalar Network600.node260 	discovery_latency 	1944
scalar Network600.node260 	number_of_desired_resources 	20
scalar Network600.node260 	query_homogenity_rate 	33.333333333333
scalar Network600.node260 	qrecord_time 	57164.492220491
scalar Network600.node260 	discovery_resolution_rate 	100
scalar Network600.node510 	rate_of_requesters 	1
scalar Network600.node510 	number_of_resources 	33000
scalar Network600.node510 	time_period 	7
scalar Network600.node510 	number_of_messages 	130
scalar Network600.node510 	discovery_latency 	1776
scalar Network600.node510 	number_of_desired_resources 	20
scalar Network600.node510 	query_homogenity_rate 	33.333333333333
scalar Network600.node510 	qrecord_time 	57545.004291871
scalar Network600.node510 	discovery_resolution_rate 	100
scalar Network600.node510 	rate_of_requesters 	1
scalar Network600.node510 	number_of_resources 	33000
scalar Network600.node510 	time_period 	8
scalar Network600.node510 	number_of_messages 	126
scalar Network600.node510 	discovery_latency 	1548
scalar Network600.node510 	number_of_desired_resources 	20
scalar Network600.node510 	query_homogenity_rate 	33.333333333333
scalar Network600.node510 	qrecord_time 	57597.750640854
scalar Network600.node510 	discovery_resolution_rate 	100
scalar Network600.node340 	rate_of_requesters 	1
scalar Network600.node340 	number_of_resources 	33000
scalar Network600.node340 	time_period 	5
scalar Network600.node340 	number_of_messages 	62
scalar Network600.node340 	discovery_latency 	714
scalar Network600.node340 	number_of_desired_resources 	20
scalar Network600.node340 	query_homogenity_rate 	33.333333333333
scalar Network600.node340 	qrecord_time 	59239.415659536
scalar Network600.node340 	discovery_resolution_rate 	100
scalar Network600.node510 	rate_of_requesters 	1
scalar Network600.node510 	number_of_resources 	33000
scalar Network600.node510 	time_period 	9
scalar Network600.node510 	number_of_messages 	93
scalar Network600.node510 	discovery_latency 	1224
scalar Network600.node510 	number_of_desired_resources 	20
scalar Network600.node510 	query_homogenity_rate 	33.333333333333
scalar Network600.node510 	qrecord_time 	59336.683838992
scalar Network600.node510 	discovery_resolution_rate 	100
scalar Network600.node510 	rate_of_requesters 	1
scalar Network600.node510 	number_of_resources 	33000
scalar Network600.node510 	time_period 	10
scalar Network600.node510 	number_of_messages 	75
scalar Network600.node510 	discovery_latency 	1164
scalar Network600.node510 	number_of_desired_resources 	20
scalar Network600.node510 	query_homogenity_rate 	33.333333333333
scalar Network600.node510 	qrecord_time 	60311.057050364
scalar Network600.node510 	discovery_resolution_rate 	100
scalar Network600.node380 	rate_of_requesters 	1
scalar Network600.node380 	number_of_resources 	33000
scalar Network600.node380 	time_period 	10
scalar Network600.node380 	number_of_messages 	136
scalar Network600.node380 	discovery_latency 	1896
scalar Network600.node380 	number_of_desired_resources 	20
scalar Network600.node380 	query_homogenity_rate 	33.333333333333
scalar Network600.node380 	qrecord_time 	61364.75103625
scalar Network600.node380 	discovery_resolution_rate 	100
scalar Network600.node260 	rate_of_requesters 	1
scalar Network600.node260 	number_of_resources 	33000
scalar Network600.node260 	time_period 	10
scalar Network600.node260 	number_of_messages 	71
scalar Network600.node260 	discovery_latency 	876
scalar Network600.node260 	number_of_desired_resources 	20
scalar Network600.node260 	query_homogenity_rate 	33.333333333333
scalar Network600.node260 	qrecord_time 	63338.850526335
scalar Network600.node260 	discovery_resolution_rate 	100
scalar Network600.node530 	rate_of_requesters 	1
scalar Network600.node530 	number_of_resources 	33000
scalar Network600.node530 	time_period 	10
scalar Network600.node530 	number_of_messages 	76
scalar Network600.node530 	discovery_latency 	1332
scalar Network600.node530 	number_of_desired_resources 	20
scalar Network600.node530 	query_homogenity_rate 	33.333333333333
scalar Network600.node530 	qrecord_time 	63484.548264252
scalar Network600.node530 	discovery_resolution_rate 	100
scalar Network600.node340 	rate_of_requesters 	1
scalar Network600.node340 	number_of_resources 	33000
scalar Network600.node340 	time_period 	6
scalar Network600.node340 	number_of_messages 	94
scalar Network600.node340 	discovery_latency 	1836
scalar Network600.node340 	number_of_desired_resources 	20
scalar Network600.node340 	query_homogenity_rate 	33.333333333333
scalar Network600.node340 	qrecord_time 	66082.038654084
scalar Network600.node340 	discovery_resolution_rate 	100
scalar Network600.node340 	rate_of_requesters 	1
scalar Network600.node340 	number_of_resources 	33000
scalar Network600.node340 	time_period 	7
scalar Network600.node340 	number_of_messages 	89
scalar Network600.node340 	discovery_latency 	1284
scalar Network600.node340 	number_of_desired_resources 	20
scalar Network600.node340 	query_homogenity_rate 	33.333333333333
scalar Network600.node340 	qrecord_time 	73856.927809308
scalar Network600.node340 	discovery_resolution_rate 	100
scalar Network600.node70 	rate_of_requesters 	1
scalar Network600.node70 	number_of_resources 	33000
scalar Network600.node70 	time_period 	7
scalar Network600.node70 	number_of_messages 	125
scalar Network600.node70 	discovery_latency 	2136
scalar Network600.node70 	number_of_desired_resources 	20
scalar Network600.node70 	query_homogenity_rate 	33.333333333333
scalar Network600.node70 	qrecord_time 	75217.805756165
scalar Network600.node70 	discovery_resolution_rate 	100
scalar Network600.node340 	rate_of_requesters 	1
scalar Network600.node340 	number_of_resources 	33000
scalar Network600.node340 	time_period 	8
scalar Network600.node340 	number_of_messages 	101
scalar Network600.node340 	discovery_latency 	1608
scalar Network600.node340 	number_of_desired_resources 	20
scalar Network600.node340 	query_homogenity_rate 	33.333333333333
scalar Network600.node340 	qrecord_time 	76208.26511762
scalar Network600.node340 	discovery_resolution_rate 	100
scalar Network600.node340 	rate_of_requesters 	1
scalar Network600.node340 	number_of_resources 	33000
scalar Network600.node340 	time_period 	9
scalar Network600.node340 	number_of_messages 	92
scalar Network600.node340 	discovery_latency 	1620
scalar Network600.node340 	number_of_desired_resources 	20
scalar Network600.node340 	query_homogenity_rate 	33.333333333333
scalar Network600.node340 	qrecord_time 	80090.911793941
scalar Network600.node340 	discovery_resolution_rate 	100
scalar Network600.node70 	rate_of_requesters 	1
scalar Network600.node70 	number_of_resources 	33000
scalar Network600.node70 	time_period 	8
scalar Network600.node70 	number_of_messages 	101
scalar Network600.node70 	discovery_latency 	2004
scalar Network600.node70 	number_of_desired_resources 	20
scalar Network600.node70 	query_homogenity_rate 	33.333333333333
scalar Network600.node70 	qrecord_time 	80582.125169504
scalar Network600.node70 	discovery_resolution_rate 	100
scalar Network600.node70 	rate_of_requesters 	1
scalar Network600.node70 	number_of_resources 	33000
scalar Network600.node70 	time_period 	9
scalar Network600.node70 	number_of_messages 	157
scalar Network600.node70 	discovery_latency 	2100
scalar Network600.node70 	number_of_desired_resources 	20
scalar Network600.node70 	query_homogenity_rate 	33.333333333333
scalar Network600.node70 	qrecord_time 	86657.035228139
scalar Network600.node70 	discovery_resolution_rate 	100
scalar Network600.node70 	rate_of_requesters 	1
scalar Network600.node70 	number_of_resources 	33000
scalar Network600.node70 	time_period 	10
scalar Network600.node70 	number_of_messages 	99
scalar Network600.node70 	discovery_latency 	1128
scalar Network600.node70 	number_of_desired_resources 	20
scalar Network600.node70 	query_homogenity_rate 	33.333333333333
scalar Network600.node70 	qrecord_time 	87279.283892455
scalar Network600.node70 	discovery_resolution_rate 	100
scalar Network600.node340 	rate_of_requesters 	1
scalar Network600.node340 	number_of_resources 	33000
scalar Network600.node340 	time_period 	10
scalar Network600.node340 	number_of_messages 	127
scalar Network600.node340 	discovery_latency 	2208
scalar Network600.node340 	number_of_desired_resources 	20
scalar Network600.node340 	query_homogenity_rate 	33.333333333333
scalar Network600.node340 	qrecord_time 	91104.924624492
scalar Network600.node340 	discovery_resolution_rate 	100
