version 2
run net700-2-20150625-02:07:12-1562
attr as 1
attr configname net700
attr datetime 20150625-02:07:12
attr dnor 20
attr experiment net700
attr inifile omnetpp.ini
attr iterationvars "$rhdrq=3, $dnor=20, $as=1"
attr iterationvars2 "$rhdrq=3, $dnor=20, $as=1, $repetition=2"
attr measurement "$rhdrq=3, $dnor=20, $as=1"
attr network Network700
attr processid 1562
attr repetition 2
attr replication #2
attr resultdir results
attr rhdrq 3
attr runnumber 2
attr seedset 2

scalar . 	as 	1
scalar . 	dnor 	20
scalar . 	rhdrq 	3
scalar Network700.node270 	rate_of_requesters 	1
scalar Network700.node270 	number_of_resources 	38500
scalar Network700.node270 	time_period 	1
scalar Network700.node270 	number_of_messages 	23
scalar Network700.node270 	discovery_latency 	216
scalar Network700.node270 	number_of_desired_resources 	20
scalar Network700.node270 	query_homogenity_rate 	33.333333333333
scalar Network700.node270 	qrecord_time 	4906
scalar Network700.node270 	discovery_resolution_rate 	100
scalar Network700.node560 	rate_of_requesters 	1
scalar Network700.node560 	number_of_resources 	38500
scalar Network700.node560 	time_period 	1
scalar Network700.node560 	number_of_messages 	31
scalar Network700.node560 	discovery_latency 	216
scalar Network700.node560 	number_of_desired_resources 	20
scalar Network700.node560 	query_homogenity_rate 	33.333333333333
scalar Network700.node560 	qrecord_time 	4948
scalar Network700.node560 	discovery_resolution_rate 	100
scalar Network700.node640 	rate_of_requesters 	1
scalar Network700.node640 	number_of_resources 	38500
scalar Network700.node640 	time_period 	1
scalar Network700.node640 	number_of_messages 	35
scalar Network700.node640 	discovery_latency 	264
scalar Network700.node640 	number_of_desired_resources 	20
scalar Network700.node640 	query_homogenity_rate 	33.333333333333
scalar Network700.node640 	qrecord_time 	4948
scalar Network700.node640 	discovery_resolution_rate 	100
scalar Network700.node630 	rate_of_requesters 	1
scalar Network700.node630 	number_of_resources 	38500
scalar Network700.node630 	time_period 	1
scalar Network700.node630 	number_of_messages 	23
scalar Network700.node630 	discovery_latency 	4044
scalar Network700.node630 	number_of_desired_resources 	20
scalar Network700.node630 	query_homogenity_rate 	33.333333333333
scalar Network700.node630 	qrecord_time 	8716
scalar Network700.node630 	discovery_resolution_rate 	66.666666666667
scalar Network700.node660 	rate_of_requesters 	1
scalar Network700.node660 	number_of_resources 	38500
scalar Network700.node660 	time_period 	1
scalar Network700.node660 	number_of_messages 	39
scalar Network700.node660 	discovery_latency 	4128
scalar Network700.node660 	number_of_desired_resources 	20
scalar Network700.node660 	query_homogenity_rate 	33.333333333333
scalar Network700.node660 	qrecord_time 	8854
scalar Network700.node660 	discovery_resolution_rate 	66.666666666667
scalar Network700.node460 	rate_of_requesters 	1
scalar Network700.node460 	number_of_resources 	38500
scalar Network700.node460 	time_period 	1
scalar Network700.node460 	number_of_messages 	15
scalar Network700.node460 	discovery_latency 	4188
scalar Network700.node460 	number_of_desired_resources 	20
scalar Network700.node460 	query_homogenity_rate 	33.333333333333
scalar Network700.node460 	qrecord_time 	8878
scalar Network700.node460 	discovery_resolution_rate 	66.666666666667
scalar Network700.node100 	rate_of_requesters 	1
scalar Network700.node100 	number_of_resources 	38500
scalar Network700.node100 	time_period 	1
scalar Network700.node100 	number_of_messages 	11
scalar Network700.node100 	discovery_latency 	4176
scalar Network700.node100 	number_of_desired_resources 	20
scalar Network700.node100 	query_homogenity_rate 	33.333333333333
scalar Network700.node100 	qrecord_time 	8890
scalar Network700.node100 	discovery_resolution_rate 	66.666666666667
scalar Network700.node180 	rate_of_requesters 	1
scalar Network700.node180 	number_of_resources 	38500
scalar Network700.node180 	time_period 	1
scalar Network700.node180 	number_of_messages 	28
scalar Network700.node180 	discovery_latency 	4248
scalar Network700.node180 	number_of_desired_resources 	20
scalar Network700.node180 	query_homogenity_rate 	33.333333333333
scalar Network700.node180 	qrecord_time 	8974
scalar Network700.node180 	discovery_resolution_rate 	66.666666666667
scalar Network700.node110 	rate_of_requesters 	1
scalar Network700.node110 	number_of_resources 	38500
scalar Network700.node110 	time_period 	1
scalar Network700.node110 	number_of_messages 	17
scalar Network700.node110 	discovery_latency 	4248
scalar Network700.node110 	number_of_desired_resources 	20
scalar Network700.node110 	query_homogenity_rate 	33.333333333333
scalar Network700.node110 	qrecord_time 	8986
scalar Network700.node110 	discovery_resolution_rate 	66.666666666667
scalar Network700.node190 	rate_of_requesters 	1
scalar Network700.node190 	number_of_resources 	38500
scalar Network700.node190 	time_period 	1
scalar Network700.node190 	number_of_messages 	20
scalar Network700.node190 	discovery_latency 	4320
scalar Network700.node190 	number_of_desired_resources 	20
scalar Network700.node190 	query_homogenity_rate 	33.333333333333
scalar Network700.node190 	qrecord_time 	9034
scalar Network700.node190 	discovery_resolution_rate 	66.666666666667
scalar Network700.node210 	rate_of_requesters 	1
scalar Network700.node210 	number_of_resources 	38500
scalar Network700.node210 	time_period 	1
scalar Network700.node210 	number_of_messages 	12
scalar Network700.node210 	discovery_latency 	4368
scalar Network700.node210 	number_of_desired_resources 	20
scalar Network700.node210 	query_homogenity_rate 	33.333333333333
scalar Network700.node210 	qrecord_time 	9082
scalar Network700.node210 	discovery_resolution_rate 	66.666666666667
scalar Network700.node300 	rate_of_requesters 	1
scalar Network700.node300 	number_of_resources 	38500
scalar Network700.node300 	time_period 	1
scalar Network700.node300 	number_of_messages 	20
scalar Network700.node300 	discovery_latency 	4344
scalar Network700.node300 	number_of_desired_resources 	20
scalar Network700.node300 	query_homogenity_rate 	33.333333333333
scalar Network700.node300 	qrecord_time 	9136
scalar Network700.node300 	discovery_resolution_rate 	66.666666666667
scalar Network700.node420 	rate_of_requesters 	1
scalar Network700.node420 	number_of_resources 	38500
scalar Network700.node420 	time_period 	1
scalar Network700.node420 	number_of_messages 	12
scalar Network700.node420 	discovery_latency 	4452
scalar Network700.node420 	number_of_desired_resources 	20
scalar Network700.node420 	query_homogenity_rate 	33.333333333333
scalar Network700.node420 	qrecord_time 	9166
scalar Network700.node420 	discovery_resolution_rate 	66.666666666667
scalar Network700.node240 	rate_of_requesters 	1
scalar Network700.node240 	number_of_resources 	38500
scalar Network700.node240 	time_period 	1
scalar Network700.node240 	number_of_messages 	25
scalar Network700.node240 	discovery_latency 	4440
scalar Network700.node240 	number_of_desired_resources 	20
scalar Network700.node240 	query_homogenity_rate 	33.333333333333
scalar Network700.node240 	qrecord_time 	9196
scalar Network700.node240 	discovery_resolution_rate 	33.333333333333
scalar Network700.node330 	rate_of_requesters 	1
scalar Network700.node330 	number_of_resources 	38500
scalar Network700.node330 	time_period 	1
scalar Network700.node330 	number_of_messages 	5
scalar Network700.node330 	discovery_latency 	4428
scalar Network700.node330 	number_of_desired_resources 	20
scalar Network700.node330 	query_homogenity_rate 	33.333333333333
scalar Network700.node330 	qrecord_time 	9196
scalar Network700.node330 	discovery_resolution_rate 	33.333333333333
scalar Network700.node320 	rate_of_requesters 	1
scalar Network700.node320 	number_of_resources 	38500
scalar Network700.node320 	time_period 	1
scalar Network700.node320 	number_of_messages 	5
scalar Network700.node320 	discovery_latency 	4428
scalar Network700.node320 	number_of_desired_resources 	20
scalar Network700.node320 	query_homogenity_rate 	33.333333333333
scalar Network700.node320 	qrecord_time 	9196
scalar Network700.node320 	discovery_resolution_rate 	33.333333333333
scalar Network700.node380 	rate_of_requesters 	1
scalar Network700.node380 	number_of_resources 	38500
scalar Network700.node380 	time_period 	1
scalar Network700.node380 	number_of_messages 	16
scalar Network700.node380 	discovery_latency 	4488
scalar Network700.node380 	number_of_desired_resources 	20
scalar Network700.node380 	query_homogenity_rate 	33.333333333333
scalar Network700.node380 	qrecord_time 	9202
scalar Network700.node380 	discovery_resolution_rate 	33.333333333333
scalar Network700.node260 	rate_of_requesters 	1
scalar Network700.node260 	number_of_resources 	38500
scalar Network700.node260 	time_period 	1
scalar Network700.node260 	number_of_messages 	9
scalar Network700.node260 	discovery_latency 	4452
scalar Network700.node260 	number_of_desired_resources 	20
scalar Network700.node260 	query_homogenity_rate 	33.333333333333
scalar Network700.node260 	qrecord_time 	9208
scalar Network700.node260 	discovery_resolution_rate 	33.333333333333
scalar Network700.node600 	rate_of_requesters 	1
scalar Network700.node600 	number_of_resources 	38500
scalar Network700.node600 	time_period 	1
scalar Network700.node600 	number_of_messages 	8
scalar Network700.node600 	discovery_latency 	4524
scalar Network700.node600 	number_of_desired_resources 	20
scalar Network700.node600 	query_homogenity_rate 	33.333333333333
scalar Network700.node600 	qrecord_time 	9220
scalar Network700.node600 	discovery_resolution_rate 	33.333333333333
scalar Network700.node220 	rate_of_requesters 	1
scalar Network700.node220 	number_of_resources 	38500
scalar Network700.node220 	time_period 	1
scalar Network700.node220 	number_of_messages 	6
scalar Network700.node220 	discovery_latency 	4476
scalar Network700.node220 	number_of_desired_resources 	20
scalar Network700.node220 	query_homogenity_rate 	33.333333333333
scalar Network700.node220 	qrecord_time 	9226
scalar Network700.node220 	discovery_resolution_rate 	33.333333333333
scalar Network700.node470 	rate_of_requesters 	1
scalar Network700.node470 	number_of_resources 	38500
scalar Network700.node470 	time_period 	1
scalar Network700.node470 	number_of_messages 	8
scalar Network700.node470 	discovery_latency 	4524
scalar Network700.node470 	number_of_desired_resources 	20
scalar Network700.node470 	query_homogenity_rate 	33.333333333333
scalar Network700.node470 	qrecord_time 	9238
scalar Network700.node470 	discovery_resolution_rate 	33.333333333333
scalar Network700.node610 	rate_of_requesters 	1
scalar Network700.node610 	number_of_resources 	38500
scalar Network700.node610 	time_period 	1
scalar Network700.node610 	number_of_messages 	13
scalar Network700.node610 	discovery_latency 	4596
scalar Network700.node610 	number_of_desired_resources 	20
scalar Network700.node610 	query_homogenity_rate 	33.333333333333
scalar Network700.node610 	qrecord_time 	9238
scalar Network700.node610 	discovery_resolution_rate 	33.333333333333
scalar Network700.node230 	rate_of_requesters 	1
scalar Network700.node230 	number_of_resources 	38500
scalar Network700.node230 	time_period 	1
scalar Network700.node230 	number_of_messages 	19
scalar Network700.node230 	discovery_latency 	4524
scalar Network700.node230 	number_of_desired_resources 	20
scalar Network700.node230 	query_homogenity_rate 	33.333333333333
scalar Network700.node230 	qrecord_time 	9244
scalar Network700.node230 	discovery_resolution_rate 	33.333333333333
scalar Network700.node50 	rate_of_requesters 	1
scalar Network700.node50 	number_of_resources 	38500
scalar Network700.node50 	time_period 	1
scalar Network700.node50 	number_of_messages 	230
scalar Network700.node50 	discovery_latency 	4524
scalar Network700.node50 	number_of_desired_resources 	20
scalar Network700.node50 	query_homogenity_rate 	33.333333333333
scalar Network700.node50 	qrecord_time 	9256
scalar Network700.node50 	discovery_resolution_rate 	83.333333333333
scalar Network700.node130 	rate_of_requesters 	1
scalar Network700.node130 	number_of_resources 	38500
scalar Network700.node130 	time_period 	1
scalar Network700.node130 	number_of_messages 	231
scalar Network700.node130 	discovery_latency 	4524
scalar Network700.node130 	number_of_desired_resources 	20
scalar Network700.node130 	query_homogenity_rate 	33.333333333333
scalar Network700.node130 	qrecord_time 	9256
scalar Network700.node130 	discovery_resolution_rate 	50
scalar Network700.node280 	rate_of_requesters 	1
scalar Network700.node280 	number_of_resources 	38500
scalar Network700.node280 	time_period 	1
scalar Network700.node280 	number_of_messages 	14
scalar Network700.node280 	discovery_latency 	4584
scalar Network700.node280 	number_of_desired_resources 	20
scalar Network700.node280 	query_homogenity_rate 	33.333333333333
scalar Network700.node280 	qrecord_time 	9256
scalar Network700.node280 	discovery_resolution_rate 	33.333333333333
scalar Network700.node580 	rate_of_requesters 	1
scalar Network700.node580 	number_of_resources 	38500
scalar Network700.node580 	time_period 	1
scalar Network700.node580 	number_of_messages 	16
scalar Network700.node580 	discovery_latency 	4560
scalar Network700.node580 	number_of_desired_resources 	20
scalar Network700.node580 	query_homogenity_rate 	33.333333333333
scalar Network700.node580 	qrecord_time 	9274
scalar Network700.node580 	discovery_resolution_rate 	33.333333333333
scalar Network700.node0 	rate_of_requesters 	1
scalar Network700.node0 	number_of_resources 	38500
scalar Network700.node0 	time_period 	1
scalar Network700.node0 	number_of_messages 	4
scalar Network700.node0 	discovery_latency 	4560
scalar Network700.node0 	number_of_desired_resources 	20
scalar Network700.node0 	query_homogenity_rate 	33.333333333333
scalar Network700.node0 	qrecord_time 	9280
scalar Network700.node0 	discovery_resolution_rate 	33.333333333333
scalar Network700.node520 	rate_of_requesters 	1
scalar Network700.node520 	number_of_resources 	38500
scalar Network700.node520 	time_period 	1
scalar Network700.node520 	number_of_messages 	7
scalar Network700.node520 	discovery_latency 	4572
scalar Network700.node520 	number_of_desired_resources 	20
scalar Network700.node520 	query_homogenity_rate 	33.333333333333
scalar Network700.node520 	qrecord_time 	9298
scalar Network700.node520 	discovery_resolution_rate 	33.333333333333
scalar Network700.node390 	rate_of_requesters 	1
scalar Network700.node390 	number_of_resources 	38500
scalar Network700.node390 	time_period 	1
scalar Network700.node390 	number_of_messages 	42
scalar Network700.node390 	discovery_latency 	4512
scalar Network700.node390 	number_of_desired_resources 	20
scalar Network700.node390 	query_homogenity_rate 	33.333333333333
scalar Network700.node390 	qrecord_time 	9322
scalar Network700.node390 	discovery_resolution_rate 	33.333333333333
scalar Network700.node650 	rate_of_requesters 	1
scalar Network700.node650 	number_of_resources 	38500
scalar Network700.node650 	time_period 	1
scalar Network700.node650 	number_of_messages 	8
scalar Network700.node650 	discovery_latency 	4524
scalar Network700.node650 	number_of_desired_resources 	20
scalar Network700.node650 	query_homogenity_rate 	33.333333333333
scalar Network700.node650 	qrecord_time 	9334
scalar Network700.node650 	discovery_resolution_rate 	33.333333333333
scalar Network700.node550 	rate_of_requesters 	1
scalar Network700.node550 	number_of_resources 	38500
scalar Network700.node550 	time_period 	1
scalar Network700.node550 	number_of_messages 	8
scalar Network700.node550 	discovery_latency 	4596
scalar Network700.node550 	number_of_desired_resources 	20
scalar Network700.node550 	query_homogenity_rate 	33.333333333333
scalar Network700.node550 	qrecord_time 	9346
scalar Network700.node550 	discovery_resolution_rate 	33.333333333333
scalar Network700.node70 	rate_of_requesters 	1
scalar Network700.node70 	number_of_resources 	38500
scalar Network700.node70 	time_period 	1
scalar Network700.node70 	number_of_messages 	6
scalar Network700.node70 	discovery_latency 	4620
scalar Network700.node70 	number_of_desired_resources 	20
scalar Network700.node70 	query_homogenity_rate 	33.333333333333
scalar Network700.node70 	qrecord_time 	9352
scalar Network700.node70 	discovery_resolution_rate 	33.333333333333
scalar Network700.node430 	rate_of_requesters 	1
scalar Network700.node430 	number_of_resources 	38500
scalar Network700.node430 	time_period 	1
scalar Network700.node430 	number_of_messages 	37
scalar Network700.node430 	discovery_latency 	4668
scalar Network700.node430 	number_of_desired_resources 	20
scalar Network700.node430 	query_homogenity_rate 	33.333333333333
scalar Network700.node430 	qrecord_time 	9352
scalar Network700.node430 	discovery_resolution_rate 	33.333333333333
scalar Network700.node30 	rate_of_requesters 	1
scalar Network700.node30 	number_of_resources 	38500
scalar Network700.node30 	time_period 	2
scalar Network700.node30 	number_of_messages 	231
scalar Network700.node30 	discovery_latency 	4596
scalar Network700.node30 	number_of_desired_resources 	20
scalar Network700.node30 	query_homogenity_rate 	33.333333333333
scalar Network700.node30 	qrecord_time 	9357.722693174
scalar Network700.node30 	discovery_resolution_rate 	50
scalar Network700.node490 	rate_of_requesters 	1
scalar Network700.node490 	number_of_resources 	38500
scalar Network700.node490 	time_period 	1
scalar Network700.node490 	number_of_messages 	6
scalar Network700.node490 	discovery_latency 	4608
scalar Network700.node490 	number_of_desired_resources 	20
scalar Network700.node490 	query_homogenity_rate 	33.333333333333
scalar Network700.node490 	qrecord_time 	9358
scalar Network700.node490 	discovery_resolution_rate 	33.333333333333
scalar Network700.node140 	rate_of_requesters 	1
scalar Network700.node140 	number_of_resources 	38500
scalar Network700.node140 	time_period 	1
scalar Network700.node140 	number_of_messages 	11
scalar Network700.node140 	discovery_latency 	4608
scalar Network700.node140 	number_of_desired_resources 	20
scalar Network700.node140 	query_homogenity_rate 	33.333333333333
scalar Network700.node140 	qrecord_time 	9376
scalar Network700.node140 	discovery_resolution_rate 	33.333333333333
scalar Network700.node170 	rate_of_requesters 	1
scalar Network700.node170 	number_of_resources 	38500
scalar Network700.node170 	time_period 	1
scalar Network700.node170 	number_of_messages 	35
scalar Network700.node170 	discovery_latency 	4668
scalar Network700.node170 	number_of_desired_resources 	20
scalar Network700.node170 	query_homogenity_rate 	33.333333333333
scalar Network700.node170 	qrecord_time 	9388
scalar Network700.node170 	discovery_resolution_rate 	33.333333333333
scalar Network700.node250 	rate_of_requesters 	1
scalar Network700.node250 	number_of_resources 	38500
scalar Network700.node250 	time_period 	1
scalar Network700.node250 	number_of_messages 	6
scalar Network700.node250 	discovery_latency 	4632
scalar Network700.node250 	number_of_desired_resources 	20
scalar Network700.node250 	query_homogenity_rate 	33.333333333333
scalar Network700.node250 	qrecord_time 	9406
scalar Network700.node250 	discovery_resolution_rate 	33.333333333333
scalar Network700.node20 	rate_of_requesters 	1
scalar Network700.node20 	number_of_resources 	38500
scalar Network700.node20 	time_period 	1
scalar Network700.node20 	number_of_messages 	24
scalar Network700.node20 	discovery_latency 	4668
scalar Network700.node20 	number_of_desired_resources 	20
scalar Network700.node20 	query_homogenity_rate 	33.333333333333
scalar Network700.node20 	qrecord_time 	9418
scalar Network700.node20 	discovery_resolution_rate 	33.333333333333
scalar Network700.node290 	rate_of_requesters 	1
scalar Network700.node290 	number_of_resources 	38500
scalar Network700.node290 	time_period 	1
scalar Network700.node290 	number_of_messages 	5
scalar Network700.node290 	discovery_latency 	4692
scalar Network700.node290 	number_of_desired_resources 	20
scalar Network700.node290 	query_homogenity_rate 	33.333333333333
scalar Network700.node290 	qrecord_time 	9424
scalar Network700.node290 	discovery_resolution_rate 	33.333333333333
scalar Network700.node540 	rate_of_requesters 	1
scalar Network700.node540 	number_of_resources 	38500
scalar Network700.node540 	time_period 	1
scalar Network700.node540 	number_of_messages 	21
scalar Network700.node540 	discovery_latency 	4740
scalar Network700.node540 	number_of_desired_resources 	20
scalar Network700.node540 	query_homogenity_rate 	33.333333333333
scalar Network700.node540 	qrecord_time 	9430
scalar Network700.node540 	discovery_resolution_rate 	33.333333333333
scalar Network700.node40 	rate_of_requesters 	1
scalar Network700.node40 	number_of_resources 	38500
scalar Network700.node40 	time_period 	1
scalar Network700.node40 	number_of_messages 	8
scalar Network700.node40 	discovery_latency 	4716
scalar Network700.node40 	number_of_desired_resources 	20
scalar Network700.node40 	query_homogenity_rate 	33.333333333333
scalar Network700.node40 	qrecord_time 	9454
scalar Network700.node40 	discovery_resolution_rate 	33.333333333333
scalar Network700.node370 	rate_of_requesters 	1
scalar Network700.node370 	number_of_resources 	38500
scalar Network700.node370 	time_period 	1
scalar Network700.node370 	number_of_messages 	15
scalar Network700.node370 	discovery_latency 	4728
scalar Network700.node370 	number_of_desired_resources 	20
scalar Network700.node370 	query_homogenity_rate 	33.333333333333
scalar Network700.node370 	qrecord_time 	9472
scalar Network700.node370 	discovery_resolution_rate 	66.666666666667
scalar Network700.node10 	rate_of_requesters 	1
scalar Network700.node10 	number_of_resources 	38500
scalar Network700.node10 	time_period 	1
scalar Network700.node10 	number_of_messages 	11
scalar Network700.node10 	discovery_latency 	4764
scalar Network700.node10 	number_of_desired_resources 	20
scalar Network700.node10 	query_homogenity_rate 	33.333333333333
scalar Network700.node10 	qrecord_time 	9478
scalar Network700.node10 	discovery_resolution_rate 	66.666666666667
scalar Network700.node500 	rate_of_requesters 	1
scalar Network700.node500 	number_of_resources 	38500
scalar Network700.node500 	time_period 	1
scalar Network700.node500 	number_of_messages 	10
scalar Network700.node500 	discovery_latency 	4752
scalar Network700.node500 	number_of_desired_resources 	20
scalar Network700.node500 	query_homogenity_rate 	33.333333333333
scalar Network700.node500 	qrecord_time 	9478
scalar Network700.node500 	discovery_resolution_rate 	33.333333333333
scalar Network700.node690 	rate_of_requesters 	1
scalar Network700.node690 	number_of_resources 	38500
scalar Network700.node690 	time_period 	1
scalar Network700.node690 	number_of_messages 	14
scalar Network700.node690 	discovery_latency 	4692
scalar Network700.node690 	number_of_desired_resources 	20
scalar Network700.node690 	query_homogenity_rate 	33.333333333333
scalar Network700.node690 	qrecord_time 	9490
scalar Network700.node690 	discovery_resolution_rate 	33.333333333333
scalar Network700.node400 	rate_of_requesters 	1
scalar Network700.node400 	number_of_resources 	38500
scalar Network700.node400 	time_period 	1
scalar Network700.node400 	number_of_messages 	31
scalar Network700.node400 	discovery_latency 	4728
scalar Network700.node400 	number_of_desired_resources 	20
scalar Network700.node400 	query_homogenity_rate 	33.333333333333
scalar Network700.node400 	qrecord_time 	9502
scalar Network700.node400 	discovery_resolution_rate 	33.333333333333
scalar Network700.node570 	rate_of_requesters 	1
scalar Network700.node570 	number_of_resources 	38500
scalar Network700.node570 	time_period 	1
scalar Network700.node570 	number_of_messages 	2
scalar Network700.node570 	discovery_latency 	4818
scalar Network700.node570 	number_of_desired_resources 	20
scalar Network700.node570 	query_homogenity_rate 	33.333333333333
scalar Network700.node570 	qrecord_time 	9502
scalar Network700.node570 	discovery_resolution_rate 	0
scalar Network700.node120 	rate_of_requesters 	1
scalar Network700.node120 	number_of_resources 	38500
scalar Network700.node120 	time_period 	1
scalar Network700.node120 	number_of_messages 	2
scalar Network700.node120 	discovery_latency 	4782
scalar Network700.node120 	number_of_desired_resources 	20
scalar Network700.node120 	query_homogenity_rate 	33.333333333333
scalar Network700.node120 	qrecord_time 	9514
scalar Network700.node120 	discovery_resolution_rate 	0
scalar Network700.node530 	rate_of_requesters 	1
scalar Network700.node530 	number_of_resources 	38500
scalar Network700.node530 	time_period 	1
scalar Network700.node530 	number_of_messages 	2
scalar Network700.node530 	discovery_latency 	4782
scalar Network700.node530 	number_of_desired_resources 	20
scalar Network700.node530 	query_homogenity_rate 	33.333333333333
scalar Network700.node530 	qrecord_time 	9514
scalar Network700.node530 	discovery_resolution_rate 	0
scalar Network700.node670 	rate_of_requesters 	1
scalar Network700.node670 	number_of_resources 	38500
scalar Network700.node670 	time_period 	1
scalar Network700.node670 	number_of_messages 	2
scalar Network700.node670 	discovery_latency 	4830
scalar Network700.node670 	number_of_desired_resources 	20
scalar Network700.node670 	query_homogenity_rate 	33.333333333333
scalar Network700.node670 	qrecord_time 	9538
scalar Network700.node670 	discovery_resolution_rate 	0
scalar Network700.node350 	rate_of_requesters 	1
scalar Network700.node350 	number_of_resources 	38500
scalar Network700.node350 	time_period 	1
scalar Network700.node350 	number_of_messages 	15
scalar Network700.node350 	discovery_latency 	4824
scalar Network700.node350 	number_of_desired_resources 	20
scalar Network700.node350 	query_homogenity_rate 	33.333333333333
scalar Network700.node350 	qrecord_time 	9550
scalar Network700.node350 	discovery_resolution_rate 	66.666666666667
scalar Network700.node510 	rate_of_requesters 	1
scalar Network700.node510 	number_of_resources 	38500
scalar Network700.node510 	time_period 	1
scalar Network700.node510 	number_of_messages 	2
scalar Network700.node510 	discovery_latency 	4866
scalar Network700.node510 	number_of_desired_resources 	20
scalar Network700.node510 	query_homogenity_rate 	33.333333333333
scalar Network700.node510 	qrecord_time 	9580
scalar Network700.node510 	discovery_resolution_rate 	0
scalar Network700.node440 	rate_of_requesters 	1
scalar Network700.node440 	number_of_resources 	38500
scalar Network700.node440 	time_period 	1
scalar Network700.node440 	number_of_messages 	2
scalar Network700.node440 	discovery_latency 	4794
scalar Network700.node440 	number_of_desired_resources 	20
scalar Network700.node440 	query_homogenity_rate 	33.333333333333
scalar Network700.node440 	qrecord_time 	9586
scalar Network700.node440 	discovery_resolution_rate 	0
scalar Network700.node450 	rate_of_requesters 	1
scalar Network700.node450 	number_of_resources 	38500
scalar Network700.node450 	time_period 	1
scalar Network700.node450 	number_of_messages 	19
scalar Network700.node450 	discovery_latency 	4878
scalar Network700.node450 	number_of_desired_resources 	20
scalar Network700.node450 	query_homogenity_rate 	33.333333333333
scalar Network700.node450 	qrecord_time 	9616
scalar Network700.node450 	discovery_resolution_rate 	33.333333333333
scalar Network700.node150 	rate_of_requesters 	1
scalar Network700.node150 	number_of_resources 	38500
scalar Network700.node150 	time_period 	1
scalar Network700.node150 	number_of_messages 	8
scalar Network700.node150 	discovery_latency 	4962
scalar Network700.node150 	number_of_desired_resources 	20
scalar Network700.node150 	query_homogenity_rate 	33.333333333333
scalar Network700.node150 	qrecord_time 	9658
scalar Network700.node150 	discovery_resolution_rate 	33.333333333333
scalar Network700.node80 	rate_of_requesters 	1
scalar Network700.node80 	number_of_resources 	38500
scalar Network700.node80 	time_period 	1
scalar Network700.node80 	number_of_messages 	23
scalar Network700.node80 	discovery_latency 	4950
scalar Network700.node80 	number_of_desired_resources 	20
scalar Network700.node80 	query_homogenity_rate 	33.333333333333
scalar Network700.node80 	qrecord_time 	9664
scalar Network700.node80 	discovery_resolution_rate 	33.333333333333
scalar Network700.node360 	rate_of_requesters 	1
scalar Network700.node360 	number_of_resources 	38500
scalar Network700.node360 	time_period 	1
scalar Network700.node360 	number_of_messages 	2
scalar Network700.node360 	discovery_latency 	4962
scalar Network700.node360 	number_of_desired_resources 	20
scalar Network700.node360 	query_homogenity_rate 	33.333333333333
scalar Network700.node360 	qrecord_time 	9676
scalar Network700.node360 	discovery_resolution_rate 	0
scalar Network700.node340 	rate_of_requesters 	1
scalar Network700.node340 	number_of_resources 	38500
scalar Network700.node340 	time_period 	1
scalar Network700.node340 	number_of_messages 	0
scalar Network700.node340 	discovery_latency 	4938
scalar Network700.node340 	number_of_desired_resources 	20
scalar Network700.node340 	query_homogenity_rate 	33.333333333333
scalar Network700.node340 	qrecord_time 	9682
scalar Network700.node340 	discovery_resolution_rate 	0
scalar Network700.node410 	rate_of_requesters 	1
scalar Network700.node410 	number_of_resources 	38500
scalar Network700.node410 	time_period 	1
scalar Network700.node410 	number_of_messages 	2
scalar Network700.node410 	discovery_latency 	4974
scalar Network700.node410 	number_of_desired_resources 	20
scalar Network700.node410 	query_homogenity_rate 	33.333333333333
scalar Network700.node410 	qrecord_time 	9712
scalar Network700.node410 	discovery_resolution_rate 	0
scalar Network700.node200 	rate_of_requesters 	1
scalar Network700.node200 	number_of_resources 	38500
scalar Network700.node200 	time_period 	1
scalar Network700.node200 	number_of_messages 	2
scalar Network700.node200 	discovery_latency 	5010
scalar Network700.node200 	number_of_desired_resources 	20
scalar Network700.node200 	query_homogenity_rate 	33.333333333333
scalar Network700.node200 	qrecord_time 	9736
scalar Network700.node200 	discovery_resolution_rate 	0
scalar Network700.node310 	rate_of_requesters 	1
scalar Network700.node310 	number_of_resources 	38500
scalar Network700.node310 	time_period 	1
scalar Network700.node310 	number_of_messages 	45
scalar Network700.node310 	discovery_latency 	5028
scalar Network700.node310 	number_of_desired_resources 	20
scalar Network700.node310 	query_homogenity_rate 	33.333333333333
scalar Network700.node310 	qrecord_time 	9760
scalar Network700.node310 	discovery_resolution_rate 	33.333333333333
scalar Network700.node30 	rate_of_requesters 	1
scalar Network700.node30 	number_of_resources 	38500
scalar Network700.node30 	time_period 	1
scalar Network700.node30 	number_of_messages 	12
scalar Network700.node30 	discovery_latency 	5094
scalar Network700.node30 	number_of_desired_resources 	20
scalar Network700.node30 	query_homogenity_rate 	33.333333333333
scalar Network700.node30 	qrecord_time 	9760
scalar Network700.node30 	discovery_resolution_rate 	33.333333333333
scalar Network700.node480 	rate_of_requesters 	1
scalar Network700.node480 	number_of_resources 	38500
scalar Network700.node480 	time_period 	1
scalar Network700.node480 	number_of_messages 	9
scalar Network700.node480 	discovery_latency 	5010
scalar Network700.node480 	number_of_desired_resources 	20
scalar Network700.node480 	query_homogenity_rate 	33.333333333333
scalar Network700.node480 	qrecord_time 	9766
scalar Network700.node480 	discovery_resolution_rate 	33.333333333333
scalar Network700.node90 	rate_of_requesters 	1
scalar Network700.node90 	number_of_resources 	38500
scalar Network700.node90 	time_period 	1
scalar Network700.node90 	number_of_messages 	2
scalar Network700.node90 	discovery_latency 	5058
scalar Network700.node90 	number_of_desired_resources 	20
scalar Network700.node90 	query_homogenity_rate 	33.333333333333
scalar Network700.node90 	qrecord_time 	9772
scalar Network700.node90 	discovery_resolution_rate 	0
scalar Network700.node160 	rate_of_requesters 	1
scalar Network700.node160 	number_of_resources 	38500
scalar Network700.node160 	time_period 	1
scalar Network700.node160 	number_of_messages 	2
scalar Network700.node160 	discovery_latency 	5070
scalar Network700.node160 	number_of_desired_resources 	20
scalar Network700.node160 	query_homogenity_rate 	33.333333333333
scalar Network700.node160 	qrecord_time 	9778
scalar Network700.node160 	discovery_resolution_rate 	0
scalar Network700.node590 	rate_of_requesters 	1
scalar Network700.node590 	number_of_resources 	38500
scalar Network700.node590 	time_period 	1
scalar Network700.node590 	number_of_messages 	241
scalar Network700.node590 	discovery_latency 	5010
scalar Network700.node590 	number_of_desired_resources 	20
scalar Network700.node590 	query_homogenity_rate 	33.333333333333
scalar Network700.node590 	qrecord_time 	9778
scalar Network700.node590 	discovery_resolution_rate 	16.666666666667
scalar Network700.node650 	rate_of_requesters 	1
scalar Network700.node650 	number_of_resources 	38500
scalar Network700.node650 	time_period 	2
scalar Network700.node650 	number_of_messages 	2
scalar Network700.node650 	discovery_latency 	4782
scalar Network700.node650 	number_of_desired_resources 	20
scalar Network700.node650 	query_homogenity_rate 	33.333333333333
scalar Network700.node650 	qrecord_time 	9783.07758974
scalar Network700.node650 	discovery_resolution_rate 	0
scalar Network700.node60 	rate_of_requesters 	1
scalar Network700.node60 	number_of_resources 	38500
scalar Network700.node60 	time_period 	1
scalar Network700.node60 	number_of_messages 	14
scalar Network700.node60 	discovery_latency 	5058
scalar Network700.node60 	number_of_desired_resources 	20
scalar Network700.node60 	query_homogenity_rate 	33.333333333333
scalar Network700.node60 	qrecord_time 	9796
scalar Network700.node60 	discovery_resolution_rate 	33.333333333333
scalar Network700.node680 	rate_of_requesters 	1
scalar Network700.node680 	number_of_resources 	38500
scalar Network700.node680 	time_period 	1
scalar Network700.node680 	number_of_messages 	2
scalar Network700.node680 	discovery_latency 	5154
scalar Network700.node680 	number_of_desired_resources 	20
scalar Network700.node680 	query_homogenity_rate 	33.333333333333
scalar Network700.node680 	qrecord_time 	9838
scalar Network700.node680 	discovery_resolution_rate 	0
scalar Network700.node620 	rate_of_requesters 	1
scalar Network700.node620 	number_of_resources 	38500
scalar Network700.node620 	time_period 	1
scalar Network700.node620 	number_of_messages 	2
scalar Network700.node620 	discovery_latency 	5154
scalar Network700.node620 	number_of_desired_resources 	20
scalar Network700.node620 	query_homogenity_rate 	33.333333333333
scalar Network700.node620 	qrecord_time 	9838
scalar Network700.node620 	discovery_resolution_rate 	0
scalar Network700.node100 	rate_of_requesters 	1
scalar Network700.node100 	number_of_resources 	38500
scalar Network700.node100 	time_period 	2
scalar Network700.node100 	number_of_messages 	2
scalar Network700.node100 	discovery_latency 	4854
scalar Network700.node100 	number_of_desired_resources 	20
scalar Network700.node100 	query_homogenity_rate 	33.333333333333
scalar Network700.node100 	qrecord_time 	9929.998640125
scalar Network700.node100 	discovery_resolution_rate 	0
scalar Network700.node140 	rate_of_requesters 	1
scalar Network700.node140 	number_of_resources 	38500
scalar Network700.node140 	time_period 	2
scalar Network700.node140 	number_of_messages 	156
scalar Network700.node140 	discovery_latency 	4866
scalar Network700.node140 	number_of_desired_resources 	20
scalar Network700.node140 	query_homogenity_rate 	33.333333333333
scalar Network700.node140 	qrecord_time 	10105.107692688
scalar Network700.node140 	discovery_resolution_rate 	33.333333333333
scalar Network700.node330 	rate_of_requesters 	1
scalar Network700.node330 	number_of_resources 	38500
scalar Network700.node330 	time_period 	2
scalar Network700.node330 	number_of_messages 	2
scalar Network700.node330 	discovery_latency 	4878
scalar Network700.node330 	number_of_desired_resources 	20
scalar Network700.node330 	query_homogenity_rate 	33.333333333333
scalar Network700.node330 	qrecord_time 	10120.180209294
scalar Network700.node330 	discovery_resolution_rate 	0
scalar Network700.node450 	rate_of_requesters 	1
scalar Network700.node450 	number_of_resources 	38500
scalar Network700.node450 	time_period 	2
scalar Network700.node450 	number_of_messages 	2
scalar Network700.node450 	discovery_latency 	4770
scalar Network700.node450 	number_of_desired_resources 	20
scalar Network700.node450 	query_homogenity_rate 	33.333333333333
scalar Network700.node450 	qrecord_time 	10163.778621203
scalar Network700.node450 	discovery_resolution_rate 	0
scalar Network700.node590 	rate_of_requesters 	1
scalar Network700.node590 	number_of_resources 	38500
scalar Network700.node590 	time_period 	2
scalar Network700.node590 	number_of_messages 	2
scalar Network700.node590 	discovery_latency 	5010
scalar Network700.node590 	number_of_desired_resources 	20
scalar Network700.node590 	query_homogenity_rate 	33.333333333333
scalar Network700.node590 	qrecord_time 	10200.206336312
scalar Network700.node590 	discovery_resolution_rate 	0
scalar Network700.node400 	rate_of_requesters 	1
scalar Network700.node400 	number_of_resources 	38500
scalar Network700.node400 	time_period 	2
scalar Network700.node400 	number_of_messages 	2
scalar Network700.node400 	discovery_latency 	5022
scalar Network700.node400 	number_of_desired_resources 	20
scalar Network700.node400 	query_homogenity_rate 	33.333333333333
scalar Network700.node400 	qrecord_time 	10313.312211615
scalar Network700.node400 	discovery_resolution_rate 	0
scalar Network700.node90 	rate_of_requesters 	1
scalar Network700.node90 	number_of_resources 	38500
scalar Network700.node90 	time_period 	2
scalar Network700.node90 	number_of_messages 	2
scalar Network700.node90 	discovery_latency 	4878
scalar Network700.node90 	number_of_desired_resources 	20
scalar Network700.node90 	query_homogenity_rate 	33.333333333333
scalar Network700.node90 	qrecord_time 	10349.633093989
scalar Network700.node90 	discovery_resolution_rate 	0
scalar Network700.node470 	rate_of_requesters 	1
scalar Network700.node470 	number_of_resources 	38500
scalar Network700.node470 	time_period 	2
scalar Network700.node470 	number_of_messages 	204
scalar Network700.node470 	discovery_latency 	4962
scalar Network700.node470 	number_of_desired_resources 	20
scalar Network700.node470 	query_homogenity_rate 	33.333333333333
scalar Network700.node470 	qrecord_time 	10488.235845717
scalar Network700.node470 	discovery_resolution_rate 	33.333333333333
scalar Network700.node670 	rate_of_requesters 	1
scalar Network700.node670 	number_of_resources 	38500
scalar Network700.node670 	time_period 	2
scalar Network700.node670 	number_of_messages 	2
scalar Network700.node670 	discovery_latency 	4902
scalar Network700.node670 	number_of_desired_resources 	20
scalar Network700.node670 	query_homogenity_rate 	33.333333333333
scalar Network700.node670 	qrecord_time 	10488.817317826
scalar Network700.node670 	discovery_resolution_rate 	0
scalar Network700.node80 	rate_of_requesters 	1
scalar Network700.node80 	number_of_resources 	38500
scalar Network700.node80 	time_period 	2
scalar Network700.node80 	number_of_messages 	2
scalar Network700.node80 	discovery_latency 	4950
scalar Network700.node80 	number_of_desired_resources 	20
scalar Network700.node80 	query_homogenity_rate 	33.333333333333
scalar Network700.node80 	qrecord_time 	10594.467335899
scalar Network700.node80 	discovery_resolution_rate 	0
scalar Network700.node10 	rate_of_requesters 	1
scalar Network700.node10 	number_of_resources 	38500
scalar Network700.node10 	time_period 	2
scalar Network700.node10 	number_of_messages 	2
scalar Network700.node10 	discovery_latency 	4950
scalar Network700.node10 	number_of_desired_resources 	20
scalar Network700.node10 	query_homogenity_rate 	33.333333333333
scalar Network700.node10 	qrecord_time 	10718.0803687
scalar Network700.node10 	discovery_resolution_rate 	0
scalar Network700.node470 	rate_of_requesters 	1
scalar Network700.node470 	number_of_resources 	38500
scalar Network700.node470 	time_period 	3
scalar Network700.node470 	number_of_messages 	2
scalar Network700.node470 	discovery_latency 	5082
scalar Network700.node470 	number_of_desired_resources 	20
scalar Network700.node470 	query_homogenity_rate 	33.333333333333
scalar Network700.node470 	qrecord_time 	10726.619005665
scalar Network700.node470 	discovery_resolution_rate 	0
scalar Network700.node510 	rate_of_requesters 	1
scalar Network700.node510 	number_of_resources 	38500
scalar Network700.node510 	time_period 	2
scalar Network700.node510 	number_of_messages 	116
scalar Network700.node510 	discovery_latency 	4788
scalar Network700.node510 	number_of_desired_resources 	20
scalar Network700.node510 	query_homogenity_rate 	33.333333333333
scalar Network700.node510 	qrecord_time 	10877.618884231
scalar Network700.node510 	discovery_resolution_rate 	33.333333333333
scalar Network700.node350 	rate_of_requesters 	1
scalar Network700.node350 	number_of_resources 	38500
scalar Network700.node350 	time_period 	2
scalar Network700.node350 	number_of_messages 	2
scalar Network700.node350 	discovery_latency 	4914
scalar Network700.node350 	number_of_desired_resources 	20
scalar Network700.node350 	query_homogenity_rate 	33.333333333333
scalar Network700.node350 	qrecord_time 	10936.467197527
scalar Network700.node350 	discovery_resolution_rate 	0
scalar Network700.node20 	rate_of_requesters 	1
scalar Network700.node20 	number_of_resources 	38500
scalar Network700.node20 	time_period 	2
scalar Network700.node20 	number_of_messages 	2
scalar Network700.node20 	discovery_latency 	5070
scalar Network700.node20 	number_of_desired_resources 	20
scalar Network700.node20 	query_homogenity_rate 	33.333333333333
scalar Network700.node20 	qrecord_time 	11006.124310287
scalar Network700.node20 	discovery_resolution_rate 	0
scalar Network700.node410 	rate_of_requesters 	1
scalar Network700.node410 	number_of_resources 	38500
scalar Network700.node410 	time_period 	2
scalar Network700.node410 	number_of_messages 	2
scalar Network700.node410 	discovery_latency 	5082
scalar Network700.node410 	number_of_desired_resources 	20
scalar Network700.node410 	query_homogenity_rate 	33.333333333333
scalar Network700.node410 	qrecord_time 	11009.118614337
scalar Network700.node410 	discovery_resolution_rate 	0
scalar Network700.node430 	rate_of_requesters 	1
scalar Network700.node430 	number_of_resources 	38500
scalar Network700.node430 	time_period 	2
scalar Network700.node430 	number_of_messages 	2
scalar Network700.node430 	discovery_latency 	4998
scalar Network700.node430 	number_of_desired_resources 	20
scalar Network700.node430 	query_homogenity_rate 	33.333333333333
scalar Network700.node430 	qrecord_time 	11083.15278205
scalar Network700.node430 	discovery_resolution_rate 	0
scalar Network700.node210 	rate_of_requesters 	1
scalar Network700.node210 	number_of_resources 	38500
scalar Network700.node210 	time_period 	2
scalar Network700.node210 	number_of_messages 	2
scalar Network700.node210 	discovery_latency 	5010
scalar Network700.node210 	number_of_desired_resources 	20
scalar Network700.node210 	query_homogenity_rate 	33.333333333333
scalar Network700.node210 	qrecord_time 	11099.431039025
scalar Network700.node210 	discovery_resolution_rate 	0
scalar Network700.node420 	rate_of_requesters 	1
scalar Network700.node420 	number_of_resources 	38500
scalar Network700.node420 	time_period 	2
scalar Network700.node420 	number_of_messages 	2
scalar Network700.node420 	discovery_latency 	4914
scalar Network700.node420 	number_of_desired_resources 	20
scalar Network700.node420 	query_homogenity_rate 	33.333333333333
scalar Network700.node420 	qrecord_time 	11269.528268935
scalar Network700.node420 	discovery_resolution_rate 	0
scalar Network700.node20 	rate_of_requesters 	1
scalar Network700.node20 	number_of_resources 	38500
scalar Network700.node20 	time_period 	3
scalar Network700.node20 	number_of_messages 	2
scalar Network700.node20 	discovery_latency 	4962
scalar Network700.node20 	number_of_desired_resources 	20
scalar Network700.node20 	query_homogenity_rate 	33.333333333333
scalar Network700.node20 	qrecord_time 	11372.479769535
scalar Network700.node20 	discovery_resolution_rate 	0
scalar Network700.node600 	rate_of_requesters 	1
scalar Network700.node600 	number_of_resources 	38500
scalar Network700.node600 	time_period 	2
scalar Network700.node600 	number_of_messages 	0
scalar Network700.node600 	discovery_latency 	5154
scalar Network700.node600 	number_of_desired_resources 	20
scalar Network700.node600 	query_homogenity_rate 	33.333333333333
scalar Network700.node600 	qrecord_time 	11372.529118334
scalar Network700.node600 	discovery_resolution_rate 	0
scalar Network700.node240 	rate_of_requesters 	1
scalar Network700.node240 	number_of_resources 	38500
scalar Network700.node240 	time_period 	2
scalar Network700.node240 	number_of_messages 	2
scalar Network700.node240 	discovery_latency 	4998
scalar Network700.node240 	number_of_desired_resources 	20
scalar Network700.node240 	query_homogenity_rate 	33.333333333333
scalar Network700.node240 	qrecord_time 	11440.780052692
scalar Network700.node240 	discovery_resolution_rate 	0
scalar Network700.node520 	rate_of_requesters 	1
scalar Network700.node520 	number_of_resources 	38500
scalar Network700.node520 	time_period 	2
scalar Network700.node520 	number_of_messages 	2
scalar Network700.node520 	discovery_latency 	4758
scalar Network700.node520 	number_of_desired_resources 	20
scalar Network700.node520 	query_homogenity_rate 	33.333333333333
scalar Network700.node520 	qrecord_time 	11446.732271028
scalar Network700.node520 	discovery_resolution_rate 	0
scalar Network700.node440 	rate_of_requesters 	1
scalar Network700.node440 	number_of_resources 	38500
scalar Network700.node440 	time_period 	2
scalar Network700.node440 	number_of_messages 	2
scalar Network700.node440 	discovery_latency 	4782
scalar Network700.node440 	number_of_desired_resources 	20
scalar Network700.node440 	query_homogenity_rate 	33.333333333333
scalar Network700.node440 	qrecord_time 	11474.356441251
scalar Network700.node440 	discovery_resolution_rate 	0
scalar Network700.node550 	rate_of_requesters 	1
scalar Network700.node550 	number_of_resources 	38500
scalar Network700.node550 	time_period 	2
scalar Network700.node550 	number_of_messages 	2
scalar Network700.node550 	discovery_latency 	5010
scalar Network700.node550 	number_of_desired_resources 	20
scalar Network700.node550 	query_homogenity_rate 	33.333333333333
scalar Network700.node550 	qrecord_time 	11680.826658853
scalar Network700.node550 	discovery_resolution_rate 	0
scalar Network700.node600 	rate_of_requesters 	1
scalar Network700.node600 	number_of_resources 	38500
scalar Network700.node600 	time_period 	3
scalar Network700.node600 	number_of_messages 	0
scalar Network700.node600 	discovery_latency 	5022
scalar Network700.node600 	number_of_desired_resources 	20
scalar Network700.node600 	query_homogenity_rate 	33.333333333333
scalar Network700.node600 	qrecord_time 	11717.018718657
scalar Network700.node600 	discovery_resolution_rate 	0
scalar Network700.node620 	rate_of_requesters 	1
scalar Network700.node620 	number_of_resources 	38500
scalar Network700.node620 	time_period 	2
scalar Network700.node620 	number_of_messages 	53
scalar Network700.node620 	discovery_latency 	4854
scalar Network700.node620 	number_of_desired_resources 	20
scalar Network700.node620 	query_homogenity_rate 	33.333333333333
scalar Network700.node620 	qrecord_time 	11780.753461135
scalar Network700.node620 	discovery_resolution_rate 	33.333333333333
scalar Network700.node260 	rate_of_requesters 	1
scalar Network700.node260 	number_of_resources 	38500
scalar Network700.node260 	time_period 	2
scalar Network700.node260 	number_of_messages 	102
scalar Network700.node260 	discovery_latency 	4620
scalar Network700.node260 	number_of_desired_resources 	20
scalar Network700.node260 	query_homogenity_rate 	33.333333333333
scalar Network700.node260 	qrecord_time 	11822.769611523
scalar Network700.node260 	discovery_resolution_rate 	33.333333333333
scalar Network700.node380 	rate_of_requesters 	1
scalar Network700.node380 	number_of_resources 	38500
scalar Network700.node380 	time_period 	2
scalar Network700.node380 	number_of_messages 	2
scalar Network700.node380 	discovery_latency 	4866
scalar Network700.node380 	number_of_desired_resources 	20
scalar Network700.node380 	query_homogenity_rate 	33.333333333333
scalar Network700.node380 	qrecord_time 	11889.346440443
scalar Network700.node380 	discovery_resolution_rate 	0
scalar Network700.node350 	rate_of_requesters 	1
scalar Network700.node350 	number_of_resources 	38500
scalar Network700.node350 	time_period 	3
scalar Network700.node350 	number_of_messages 	2
scalar Network700.node350 	discovery_latency 	4998
scalar Network700.node350 	number_of_desired_resources 	20
scalar Network700.node350 	query_homogenity_rate 	33.333333333333
scalar Network700.node350 	qrecord_time 	11920.526087262
scalar Network700.node350 	discovery_resolution_rate 	0
scalar Network700.node640 	rate_of_requesters 	1
scalar Network700.node640 	number_of_resources 	38500
scalar Network700.node640 	time_period 	2
scalar Network700.node640 	number_of_messages 	2
scalar Network700.node640 	discovery_latency 	5046
scalar Network700.node640 	number_of_desired_resources 	20
scalar Network700.node640 	query_homogenity_rate 	33.333333333333
scalar Network700.node640 	qrecord_time 	11967.974559934
scalar Network700.node640 	discovery_resolution_rate 	0
scalar Network700.node540 	rate_of_requesters 	1
scalar Network700.node540 	number_of_resources 	38500
scalar Network700.node540 	time_period 	2
scalar Network700.node540 	number_of_messages 	2
scalar Network700.node540 	discovery_latency 	4986
scalar Network700.node540 	number_of_desired_resources 	20
scalar Network700.node540 	query_homogenity_rate 	33.333333333333
scalar Network700.node540 	qrecord_time 	12035.870784286
scalar Network700.node540 	discovery_resolution_rate 	0
scalar Network700.node610 	rate_of_requesters 	1
scalar Network700.node610 	number_of_resources 	38500
scalar Network700.node610 	time_period 	2
scalar Network700.node610 	number_of_messages 	2
scalar Network700.node610 	discovery_latency 	4998
scalar Network700.node610 	number_of_desired_resources 	20
scalar Network700.node610 	query_homogenity_rate 	33.333333333333
scalar Network700.node610 	qrecord_time 	12036.272650797
scalar Network700.node610 	discovery_resolution_rate 	0
scalar Network700.node150 	rate_of_requesters 	1
scalar Network700.node150 	number_of_resources 	38500
scalar Network700.node150 	time_period 	2
scalar Network700.node150 	number_of_messages 	0
scalar Network700.node150 	discovery_latency 	4818
scalar Network700.node150 	number_of_desired_resources 	20
scalar Network700.node150 	query_homogenity_rate 	33.333333333333
scalar Network700.node150 	qrecord_time 	12251.212333882
scalar Network700.node150 	discovery_resolution_rate 	0
scalar Network700.node190 	rate_of_requesters 	1
scalar Network700.node190 	number_of_resources 	38500
scalar Network700.node190 	time_period 	2
scalar Network700.node190 	number_of_messages 	2
scalar Network700.node190 	discovery_latency 	5010
scalar Network700.node190 	number_of_desired_resources 	20
scalar Network700.node190 	query_homogenity_rate 	33.333333333333
scalar Network700.node190 	qrecord_time 	12285.529273909
scalar Network700.node190 	discovery_resolution_rate 	0
scalar Network700.node100 	rate_of_requesters 	1
scalar Network700.node100 	number_of_resources 	38500
scalar Network700.node100 	time_period 	3
scalar Network700.node100 	number_of_messages 	2
scalar Network700.node100 	discovery_latency 	4938
scalar Network700.node100 	number_of_desired_resources 	20
scalar Network700.node100 	query_homogenity_rate 	33.333333333333
scalar Network700.node100 	qrecord_time 	12318.021021993
scalar Network700.node100 	discovery_resolution_rate 	0
scalar Network700.node240 	rate_of_requesters 	1
scalar Network700.node240 	number_of_resources 	38500
scalar Network700.node240 	time_period 	3
scalar Network700.node240 	number_of_messages 	2
scalar Network700.node240 	discovery_latency 	5106
scalar Network700.node240 	number_of_desired_resources 	20
scalar Network700.node240 	query_homogenity_rate 	33.333333333333
scalar Network700.node240 	qrecord_time 	12343.480564397
scalar Network700.node240 	discovery_resolution_rate 	0
scalar Network700.node230 	rate_of_requesters 	1
scalar Network700.node230 	number_of_resources 	38500
scalar Network700.node230 	time_period 	2
scalar Network700.node230 	number_of_messages 	0
scalar Network700.node230 	discovery_latency 	4746
scalar Network700.node230 	number_of_desired_resources 	20
scalar Network700.node230 	query_homogenity_rate 	33.333333333333
scalar Network700.node230 	qrecord_time 	12386.262208322
scalar Network700.node230 	discovery_resolution_rate 	0
scalar Network700.node650 	rate_of_requesters 	1
scalar Network700.node650 	number_of_resources 	38500
scalar Network700.node650 	time_period 	3
scalar Network700.node650 	number_of_messages 	2
scalar Network700.node650 	discovery_latency 	5094
scalar Network700.node650 	number_of_desired_resources 	20
scalar Network700.node650 	query_homogenity_rate 	33.333333333333
scalar Network700.node650 	qrecord_time 	12529.869301237
scalar Network700.node650 	discovery_resolution_rate 	0
scalar Network700.node290 	rate_of_requesters 	1
scalar Network700.node290 	number_of_resources 	38500
scalar Network700.node290 	time_period 	2
scalar Network700.node290 	number_of_messages 	110
scalar Network700.node290 	discovery_latency 	4986
scalar Network700.node290 	number_of_desired_resources 	20
scalar Network700.node290 	query_homogenity_rate 	33.333333333333
scalar Network700.node290 	qrecord_time 	12575.386947114
scalar Network700.node290 	discovery_resolution_rate 	33.333333333333
scalar Network700.node610 	rate_of_requesters 	1
scalar Network700.node610 	number_of_resources 	38500
scalar Network700.node610 	time_period 	3
scalar Network700.node610 	number_of_messages 	2
scalar Network700.node610 	discovery_latency 	5178
scalar Network700.node610 	number_of_desired_resources 	20
scalar Network700.node610 	query_homogenity_rate 	33.333333333333
scalar Network700.node610 	qrecord_time 	12592.683280359
scalar Network700.node610 	discovery_resolution_rate 	0
scalar Network700.node380 	rate_of_requesters 	1
scalar Network700.node380 	number_of_resources 	38500
scalar Network700.node380 	time_period 	3
scalar Network700.node380 	number_of_messages 	241
scalar Network700.node380 	discovery_latency 	4986
scalar Network700.node380 	number_of_desired_resources 	20
scalar Network700.node380 	query_homogenity_rate 	33.333333333333
scalar Network700.node380 	qrecord_time 	12674.387450353
scalar Network700.node380 	discovery_resolution_rate 	16.666666666667
scalar Network700.node90 	rate_of_requesters 	1
scalar Network700.node90 	number_of_resources 	38500
scalar Network700.node90 	time_period 	3
scalar Network700.node90 	number_of_messages 	241
scalar Network700.node90 	discovery_latency 	4998
scalar Network700.node90 	number_of_desired_resources 	20
scalar Network700.node90 	query_homogenity_rate 	33.333333333333
scalar Network700.node90 	qrecord_time 	12674.748446659
scalar Network700.node90 	discovery_resolution_rate 	16.666666666667
scalar Network700.node500 	rate_of_requesters 	1
scalar Network700.node500 	number_of_resources 	38500
scalar Network700.node500 	time_period 	2
scalar Network700.node500 	number_of_messages 	2
scalar Network700.node500 	discovery_latency 	4818
scalar Network700.node500 	number_of_desired_resources 	20
scalar Network700.node500 	query_homogenity_rate 	33.333333333333
scalar Network700.node500 	qrecord_time 	12684.318033836
scalar Network700.node500 	discovery_resolution_rate 	0
scalar Network700.node240 	rate_of_requesters 	1
scalar Network700.node240 	number_of_resources 	38500
scalar Network700.node240 	time_period 	4
scalar Network700.node240 	number_of_messages 	2
scalar Network700.node240 	discovery_latency 	5034
scalar Network700.node240 	number_of_desired_resources 	20
scalar Network700.node240 	query_homogenity_rate 	33.333333333333
scalar Network700.node240 	qrecord_time 	12731.444212217
scalar Network700.node240 	discovery_resolution_rate 	0
scalar Network700.node640 	rate_of_requesters 	1
scalar Network700.node640 	number_of_resources 	38500
scalar Network700.node640 	time_period 	3
scalar Network700.node640 	number_of_messages 	2
scalar Network700.node640 	discovery_latency 	4914
scalar Network700.node640 	number_of_desired_resources 	20
scalar Network700.node640 	query_homogenity_rate 	33.333333333333
scalar Network700.node640 	qrecord_time 	12736.609951588
scalar Network700.node640 	discovery_resolution_rate 	0
scalar Network700.node40 	rate_of_requesters 	1
scalar Network700.node40 	number_of_resources 	38500
scalar Network700.node40 	time_period 	2
scalar Network700.node40 	number_of_messages 	2
scalar Network700.node40 	discovery_latency 	5034
scalar Network700.node40 	number_of_desired_resources 	20
scalar Network700.node40 	query_homogenity_rate 	33.333333333333
scalar Network700.node40 	qrecord_time 	12811.148596303
scalar Network700.node40 	discovery_resolution_rate 	0
scalar Network700.node410 	rate_of_requesters 	1
scalar Network700.node410 	number_of_resources 	38500
scalar Network700.node410 	time_period 	3
scalar Network700.node410 	number_of_messages 	2
scalar Network700.node410 	discovery_latency 	4854
scalar Network700.node410 	number_of_desired_resources 	20
scalar Network700.node410 	query_homogenity_rate 	33.333333333333
scalar Network700.node410 	qrecord_time 	12833.746182297
scalar Network700.node410 	discovery_resolution_rate 	0
scalar Network700.node550 	rate_of_requesters 	1
scalar Network700.node550 	number_of_resources 	38500
scalar Network700.node550 	time_period 	3
scalar Network700.node550 	number_of_messages 	2
scalar Network700.node550 	discovery_latency 	5034
scalar Network700.node550 	number_of_desired_resources 	20
scalar Network700.node550 	query_homogenity_rate 	33.333333333333
scalar Network700.node550 	qrecord_time 	12980.957959774
scalar Network700.node550 	discovery_resolution_rate 	0
scalar Network700.node440 	rate_of_requesters 	1
scalar Network700.node440 	number_of_resources 	38500
scalar Network700.node440 	time_period 	3
scalar Network700.node440 	number_of_messages 	2
scalar Network700.node440 	discovery_latency 	4962
scalar Network700.node440 	number_of_desired_resources 	20
scalar Network700.node440 	query_homogenity_rate 	33.333333333333
scalar Network700.node440 	qrecord_time 	12988.620193231
scalar Network700.node440 	discovery_resolution_rate 	0
scalar Network700.node40 	rate_of_requesters 	1
scalar Network700.node40 	number_of_resources 	38500
scalar Network700.node40 	time_period 	3
scalar Network700.node40 	number_of_messages 	223
scalar Network700.node40 	discovery_latency 	4776
scalar Network700.node40 	number_of_desired_resources 	20
scalar Network700.node40 	query_homogenity_rate 	33.333333333333
scalar Network700.node40 	qrecord_time 	13006.38223774
scalar Network700.node40 	discovery_resolution_rate 	33.333333333333
scalar Network700.node270 	rate_of_requesters 	1
scalar Network700.node270 	number_of_resources 	38500
scalar Network700.node270 	time_period 	2
scalar Network700.node270 	number_of_messages 	2
scalar Network700.node270 	discovery_latency 	5022
scalar Network700.node270 	number_of_desired_resources 	20
scalar Network700.node270 	query_homogenity_rate 	33.333333333333
scalar Network700.node270 	qrecord_time 	13022.256236384
scalar Network700.node270 	discovery_resolution_rate 	0
scalar Network700.node20 	rate_of_requesters 	1
scalar Network700.node20 	number_of_resources 	38500
scalar Network700.node20 	time_period 	4
scalar Network700.node20 	number_of_messages 	2
scalar Network700.node20 	discovery_latency 	5070
scalar Network700.node20 	number_of_desired_resources 	20
scalar Network700.node20 	query_homogenity_rate 	33.333333333333
scalar Network700.node20 	qrecord_time 	13074.19103465
scalar Network700.node20 	discovery_resolution_rate 	0
scalar Network700.node30 	rate_of_requesters 	1
scalar Network700.node30 	number_of_resources 	38500
scalar Network700.node30 	time_period 	3
scalar Network700.node30 	number_of_messages 	2
scalar Network700.node30 	discovery_latency 	4914
scalar Network700.node30 	number_of_desired_resources 	20
scalar Network700.node30 	query_homogenity_rate 	33.333333333333
scalar Network700.node30 	qrecord_time 	13079.650291211
scalar Network700.node30 	discovery_resolution_rate 	0
scalar Network700.node460 	rate_of_requesters 	1
scalar Network700.node460 	number_of_resources 	38500
scalar Network700.node460 	time_period 	2
scalar Network700.node460 	number_of_messages 	170
scalar Network700.node460 	discovery_latency 	4800
scalar Network700.node460 	number_of_desired_resources 	20
scalar Network700.node460 	query_homogenity_rate 	33.333333333333
scalar Network700.node460 	qrecord_time 	13217.744837746
scalar Network700.node460 	discovery_resolution_rate 	33.333333333333
scalar Network700.node230 	rate_of_requesters 	1
scalar Network700.node230 	number_of_resources 	38500
scalar Network700.node230 	time_period 	3
scalar Network700.node230 	number_of_messages 	0
scalar Network700.node230 	discovery_latency 	4866
scalar Network700.node230 	number_of_desired_resources 	20
scalar Network700.node230 	query_homogenity_rate 	33.333333333333
scalar Network700.node230 	qrecord_time 	13246.786059157
scalar Network700.node230 	discovery_resolution_rate 	0
scalar Network700.node620 	rate_of_requesters 	1
scalar Network700.node620 	number_of_resources 	38500
scalar Network700.node620 	time_period 	3
scalar Network700.node620 	number_of_messages 	37
scalar Network700.node620 	discovery_latency 	4680
scalar Network700.node620 	number_of_desired_resources 	20
scalar Network700.node620 	query_homogenity_rate 	33.333333333333
scalar Network700.node620 	qrecord_time 	13265.143962033
scalar Network700.node620 	discovery_resolution_rate 	33.333333333333
scalar Network700.node200 	rate_of_requesters 	1
scalar Network700.node200 	number_of_resources 	38500
scalar Network700.node200 	time_period 	2
scalar Network700.node200 	number_of_messages 	2
scalar Network700.node200 	discovery_latency 	4890
scalar Network700.node200 	number_of_desired_resources 	20
scalar Network700.node200 	query_homogenity_rate 	33.333333333333
scalar Network700.node200 	qrecord_time 	13338.20350445
scalar Network700.node200 	discovery_resolution_rate 	0
scalar Network700.node130 	rate_of_requesters 	1
scalar Network700.node130 	number_of_resources 	38500
scalar Network700.node130 	time_period 	2
scalar Network700.node130 	number_of_messages 	2
scalar Network700.node130 	discovery_latency 	4962
scalar Network700.node130 	number_of_desired_resources 	20
scalar Network700.node130 	query_homogenity_rate 	33.333333333333
scalar Network700.node130 	qrecord_time 	13363.187941335
scalar Network700.node130 	discovery_resolution_rate 	0
scalar Network700.node330 	rate_of_requesters 	1
scalar Network700.node330 	number_of_resources 	38500
scalar Network700.node330 	time_period 	3
scalar Network700.node330 	number_of_messages 	12
scalar Network700.node330 	discovery_latency 	4974
scalar Network700.node330 	number_of_desired_resources 	20
scalar Network700.node330 	query_homogenity_rate 	33.333333333333
scalar Network700.node330 	qrecord_time 	13374.752462315
scalar Network700.node330 	discovery_resolution_rate 	33.333333333333
scalar Network700.node360 	rate_of_requesters 	1
scalar Network700.node360 	number_of_resources 	38500
scalar Network700.node360 	time_period 	2
scalar Network700.node360 	number_of_messages 	2
scalar Network700.node360 	discovery_latency 	5034
scalar Network700.node360 	number_of_desired_resources 	20
scalar Network700.node360 	query_homogenity_rate 	33.333333333333
scalar Network700.node360 	qrecord_time 	13623.411524444
scalar Network700.node360 	discovery_resolution_rate 	0
scalar Network700.node360 	rate_of_requesters 	1
scalar Network700.node360 	number_of_resources 	38500
scalar Network700.node360 	time_period 	3
scalar Network700.node360 	number_of_messages 	2
scalar Network700.node360 	discovery_latency 	4878
scalar Network700.node360 	number_of_desired_resources 	20
scalar Network700.node360 	query_homogenity_rate 	33.333333333333
scalar Network700.node360 	qrecord_time 	13747.02882273
scalar Network700.node360 	discovery_resolution_rate 	0
scalar Network700.node560 	rate_of_requesters 	1
scalar Network700.node560 	number_of_resources 	38500
scalar Network700.node560 	time_period 	2
scalar Network700.node560 	number_of_messages 	2
scalar Network700.node560 	discovery_latency 	5010
scalar Network700.node560 	number_of_desired_resources 	20
scalar Network700.node560 	query_homogenity_rate 	33.333333333333
scalar Network700.node560 	qrecord_time 	13800.582529383
scalar Network700.node560 	discovery_resolution_rate 	0
scalar Network700.node370 	rate_of_requesters 	1
scalar Network700.node370 	number_of_resources 	38500
scalar Network700.node370 	time_period 	2
scalar Network700.node370 	number_of_messages 	15
scalar Network700.node370 	discovery_latency 	5046
scalar Network700.node370 	number_of_desired_resources 	20
scalar Network700.node370 	query_homogenity_rate 	33.333333333333
scalar Network700.node370 	qrecord_time 	13861.639506322
scalar Network700.node370 	discovery_resolution_rate 	33.333333333333
scalar Network700.node0 	rate_of_requesters 	1
scalar Network700.node0 	number_of_resources 	38500
scalar Network700.node0 	time_period 	2
scalar Network700.node0 	number_of_messages 	0
scalar Network700.node0 	discovery_latency 	4998
scalar Network700.node0 	number_of_desired_resources 	20
scalar Network700.node0 	query_homogenity_rate 	33.333333333333
scalar Network700.node0 	qrecord_time 	13906.346223948
scalar Network700.node0 	discovery_resolution_rate 	0
scalar Network700.node640 	rate_of_requesters 	1
scalar Network700.node640 	number_of_resources 	38500
scalar Network700.node640 	time_period 	4
scalar Network700.node640 	number_of_messages 	128
scalar Network700.node640 	discovery_latency 	5082
scalar Network700.node640 	number_of_desired_resources 	20
scalar Network700.node640 	query_homogenity_rate 	33.333333333333
scalar Network700.node640 	qrecord_time 	13930.544805883
scalar Network700.node640 	discovery_resolution_rate 	33.333333333333
scalar Network700.node380 	rate_of_requesters 	1
scalar Network700.node380 	number_of_resources 	38500
scalar Network700.node380 	time_period 	4
scalar Network700.node380 	number_of_messages 	2
scalar Network700.node380 	discovery_latency 	5142
scalar Network700.node380 	number_of_desired_resources 	20
scalar Network700.node380 	query_homogenity_rate 	33.333333333333
scalar Network700.node380 	qrecord_time 	13936.884178455
scalar Network700.node380 	discovery_resolution_rate 	0
scalar Network700.node230 	rate_of_requesters 	1
scalar Network700.node230 	number_of_resources 	38500
scalar Network700.node230 	time_period 	4
scalar Network700.node230 	number_of_messages 	197
scalar Network700.node230 	discovery_latency 	4548
scalar Network700.node230 	number_of_desired_resources 	20
scalar Network700.node230 	query_homogenity_rate 	33.333333333333
scalar Network700.node230 	qrecord_time 	13959.035725565
scalar Network700.node230 	discovery_resolution_rate 	33.333333333333
scalar Network700.node510 	rate_of_requesters 	1
scalar Network700.node510 	number_of_resources 	38500
scalar Network700.node510 	time_period 	3
scalar Network700.node510 	number_of_messages 	2
scalar Network700.node510 	discovery_latency 	4878
scalar Network700.node510 	number_of_desired_resources 	20
scalar Network700.node510 	query_homogenity_rate 	33.333333333333
scalar Network700.node510 	qrecord_time 	13974.657257089
scalar Network700.node510 	discovery_resolution_rate 	0
scalar Network700.node470 	rate_of_requesters 	1
scalar Network700.node470 	number_of_resources 	38500
scalar Network700.node470 	time_period 	4
scalar Network700.node470 	number_of_messages 	118
scalar Network700.node470 	discovery_latency 	4560
scalar Network700.node470 	number_of_desired_resources 	20
scalar Network700.node470 	query_homogenity_rate 	33.333333333333
scalar Network700.node470 	qrecord_time 	14074.414335503
scalar Network700.node470 	discovery_resolution_rate 	33.333333333333
scalar Network700.node270 	rate_of_requesters 	1
scalar Network700.node270 	number_of_resources 	38500
scalar Network700.node270 	time_period 	3
scalar Network700.node270 	number_of_messages 	2
scalar Network700.node270 	discovery_latency 	4902
scalar Network700.node270 	number_of_desired_resources 	20
scalar Network700.node270 	query_homogenity_rate 	33.333333333333
scalar Network700.node270 	qrecord_time 	14096.43148276
scalar Network700.node270 	discovery_resolution_rate 	0
scalar Network700.node270 	rate_of_requesters 	1
scalar Network700.node270 	number_of_resources 	38500
scalar Network700.node270 	time_period 	4
scalar Network700.node270 	number_of_messages 	2
scalar Network700.node270 	discovery_latency 	4914
scalar Network700.node270 	number_of_desired_resources 	20
scalar Network700.node270 	query_homogenity_rate 	33.333333333333
scalar Network700.node270 	qrecord_time 	14192.748959244
scalar Network700.node270 	discovery_resolution_rate 	0
scalar Network700.node140 	rate_of_requesters 	1
scalar Network700.node140 	number_of_resources 	38500
scalar Network700.node140 	time_period 	3
scalar Network700.node140 	number_of_messages 	2
scalar Network700.node140 	discovery_latency 	4842
scalar Network700.node140 	number_of_desired_resources 	20
scalar Network700.node140 	query_homogenity_rate 	33.333333333333
scalar Network700.node140 	qrecord_time 	14198.283442788
scalar Network700.node140 	discovery_resolution_rate 	0
scalar Network700.node250 	rate_of_requesters 	1
scalar Network700.node250 	number_of_resources 	38500
scalar Network700.node250 	time_period 	2
scalar Network700.node250 	number_of_messages 	188
scalar Network700.node250 	discovery_latency 	4404
scalar Network700.node250 	number_of_desired_resources 	20
scalar Network700.node250 	query_homogenity_rate 	33.333333333333
scalar Network700.node250 	qrecord_time 	14216.737059777
scalar Network700.node250 	discovery_resolution_rate 	33.333333333333
scalar Network700.node440 	rate_of_requesters 	1
scalar Network700.node440 	number_of_resources 	38500
scalar Network700.node440 	time_period 	4
scalar Network700.node440 	number_of_messages 	2
scalar Network700.node440 	discovery_latency 	4938
scalar Network700.node440 	number_of_desired_resources 	20
scalar Network700.node440 	query_homogenity_rate 	33.333333333333
scalar Network700.node440 	qrecord_time 	14217.652708041
scalar Network700.node440 	discovery_resolution_rate 	0
scalar Network700.node230 	rate_of_requesters 	1
scalar Network700.node230 	number_of_resources 	38500
scalar Network700.node230 	time_period 	5
scalar Network700.node230 	number_of_messages 	96
scalar Network700.node230 	discovery_latency 	4584
scalar Network700.node230 	number_of_desired_resources 	20
scalar Network700.node230 	query_homogenity_rate 	33.333333333333
scalar Network700.node230 	qrecord_time 	14236.648136361
scalar Network700.node230 	discovery_resolution_rate 	33.333333333333
scalar Network700.node570 	rate_of_requesters 	1
scalar Network700.node570 	number_of_resources 	38500
scalar Network700.node570 	time_period 	3
scalar Network700.node570 	number_of_messages 	175
scalar Network700.node570 	discovery_latency 	4176
scalar Network700.node570 	number_of_desired_resources 	20
scalar Network700.node570 	query_homogenity_rate 	33.333333333333
scalar Network700.node570 	qrecord_time 	14312.825950374
scalar Network700.node570 	discovery_resolution_rate 	66.666666666667
scalar Network700.node130 	rate_of_requesters 	1
scalar Network700.node130 	number_of_resources 	38500
scalar Network700.node130 	time_period 	3
scalar Network700.node130 	number_of_messages 	109
scalar Network700.node130 	discovery_latency 	4476
scalar Network700.node130 	number_of_desired_resources 	20
scalar Network700.node130 	query_homogenity_rate 	33.333333333333
scalar Network700.node130 	qrecord_time 	14343.495016709
scalar Network700.node130 	discovery_resolution_rate 	33.333333333333
scalar Network700.node530 	rate_of_requesters 	1
scalar Network700.node530 	number_of_resources 	38500
scalar Network700.node530 	time_period 	2
scalar Network700.node530 	number_of_messages 	2
scalar Network700.node530 	discovery_latency 	4890
scalar Network700.node530 	number_of_desired_resources 	20
scalar Network700.node530 	query_homogenity_rate 	33.333333333333
scalar Network700.node530 	qrecord_time 	14344.612324492
scalar Network700.node530 	discovery_resolution_rate 	0
scalar Network700.node90 	rate_of_requesters 	1
scalar Network700.node90 	number_of_resources 	38500
scalar Network700.node90 	time_period 	4
scalar Network700.node90 	number_of_messages 	203
scalar Network700.node90 	discovery_latency 	4140
scalar Network700.node90 	number_of_desired_resources 	20
scalar Network700.node90 	query_homogenity_rate 	33.333333333333
scalar Network700.node90 	qrecord_time 	14365.512183331
scalar Network700.node90 	discovery_resolution_rate 	66.666666666667
scalar Network700.node100 	rate_of_requesters 	1
scalar Network700.node100 	number_of_resources 	38500
scalar Network700.node100 	time_period 	4
scalar Network700.node100 	number_of_messages 	179
scalar Network700.node100 	discovery_latency 	4986
scalar Network700.node100 	number_of_desired_resources 	20
scalar Network700.node100 	query_homogenity_rate 	33.333333333333
scalar Network700.node100 	qrecord_time 	14381.745151182
scalar Network700.node100 	discovery_resolution_rate 	33.333333333333
scalar Network700.node370 	rate_of_requesters 	1
scalar Network700.node370 	number_of_resources 	38500
scalar Network700.node370 	time_period 	3
scalar Network700.node370 	number_of_messages 	197
scalar Network700.node370 	discovery_latency 	4164
scalar Network700.node370 	number_of_desired_resources 	20
scalar Network700.node370 	query_homogenity_rate 	33.333333333333
scalar Network700.node370 	qrecord_time 	14427.317267748
scalar Network700.node370 	discovery_resolution_rate 	66.666666666667
scalar Network700.node60 	rate_of_requesters 	1
scalar Network700.node60 	number_of_resources 	38500
scalar Network700.node60 	time_period 	2
scalar Network700.node60 	number_of_messages 	2
scalar Network700.node60 	discovery_latency 	4974
scalar Network700.node60 	number_of_desired_resources 	20
scalar Network700.node60 	query_homogenity_rate 	33.333333333333
scalar Network700.node60 	qrecord_time 	14549.872713862
scalar Network700.node60 	discovery_resolution_rate 	0
scalar Network700.node600 	rate_of_requesters 	1
scalar Network700.node600 	number_of_resources 	38500
scalar Network700.node600 	time_period 	4
scalar Network700.node600 	number_of_messages 	416
scalar Network700.node600 	discovery_latency 	4596
scalar Network700.node600 	number_of_desired_resources 	20
scalar Network700.node600 	query_homogenity_rate 	33.333333333333
scalar Network700.node600 	qrecord_time 	14552.506216709
scalar Network700.node600 	discovery_resolution_rate 	50
scalar Network700.node570 	rate_of_requesters 	1
scalar Network700.node570 	number_of_resources 	38500
scalar Network700.node570 	time_period 	2
scalar Network700.node570 	number_of_messages 	2
scalar Network700.node570 	discovery_latency 	4818
scalar Network700.node570 	number_of_desired_resources 	20
scalar Network700.node570 	query_homogenity_rate 	33.333333333333
scalar Network700.node570 	qrecord_time 	14595.132962027
scalar Network700.node570 	discovery_resolution_rate 	0
scalar Network700.node580 	rate_of_requesters 	1
scalar Network700.node580 	number_of_resources 	38500
scalar Network700.node580 	time_period 	2
scalar Network700.node580 	number_of_messages 	2
scalar Network700.node580 	discovery_latency 	5190
scalar Network700.node580 	number_of_desired_resources 	20
scalar Network700.node580 	query_homogenity_rate 	33.333333333333
scalar Network700.node580 	qrecord_time 	14610.577740852
scalar Network700.node580 	discovery_resolution_rate 	0
scalar Network700.node450 	rate_of_requesters 	1
scalar Network700.node450 	number_of_resources 	38500
scalar Network700.node450 	time_period 	3
scalar Network700.node450 	number_of_messages 	2
scalar Network700.node450 	discovery_latency 	4902
scalar Network700.node450 	number_of_desired_resources 	20
scalar Network700.node450 	query_homogenity_rate 	33.333333333333
scalar Network700.node450 	qrecord_time 	14663.761490429
scalar Network700.node450 	discovery_resolution_rate 	0
scalar Network700.node150 	rate_of_requesters 	1
scalar Network700.node150 	number_of_resources 	38500
scalar Network700.node150 	time_period 	3
scalar Network700.node150 	number_of_messages 	116
scalar Network700.node150 	discovery_latency 	4698
scalar Network700.node150 	number_of_desired_resources 	20
scalar Network700.node150 	query_homogenity_rate 	33.333333333333
scalar Network700.node150 	qrecord_time 	14668.364769109
scalar Network700.node150 	discovery_resolution_rate 	33.333333333333
scalar Network700.node140 	rate_of_requesters 	1
scalar Network700.node140 	number_of_resources 	38500
scalar Network700.node140 	time_period 	4
scalar Network700.node140 	number_of_messages 	91
scalar Network700.node140 	discovery_latency 	4572
scalar Network700.node140 	number_of_desired_resources 	20
scalar Network700.node140 	query_homogenity_rate 	33.333333333333
scalar Network700.node140 	qrecord_time 	14782.20024675
scalar Network700.node140 	discovery_resolution_rate 	33.333333333333
scalar Network700.node670 	rate_of_requesters 	1
scalar Network700.node670 	number_of_resources 	38500
scalar Network700.node670 	time_period 	3
scalar Network700.node670 	number_of_messages 	64
scalar Network700.node670 	discovery_latency 	4464
scalar Network700.node670 	number_of_desired_resources 	20
scalar Network700.node670 	query_homogenity_rate 	33.333333333333
scalar Network700.node670 	qrecord_time 	14838.946113699
scalar Network700.node670 	discovery_resolution_rate 	33.333333333333
scalar Network700.node410 	rate_of_requesters 	1
scalar Network700.node410 	number_of_resources 	38500
scalar Network700.node410 	time_period 	4
scalar Network700.node410 	number_of_messages 	294
scalar Network700.node410 	discovery_latency 	4356
scalar Network700.node410 	number_of_desired_resources 	20
scalar Network700.node410 	query_homogenity_rate 	33.333333333333
scalar Network700.node410 	qrecord_time 	14847.429356272
scalar Network700.node410 	discovery_resolution_rate 	66.666666666667
scalar Network700.node540 	rate_of_requesters 	1
scalar Network700.node540 	number_of_resources 	38500
scalar Network700.node540 	time_period 	3
scalar Network700.node540 	number_of_messages 	2
scalar Network700.node540 	discovery_latency 	5106
scalar Network700.node540 	number_of_desired_resources 	20
scalar Network700.node540 	query_homogenity_rate 	33.333333333333
scalar Network700.node540 	qrecord_time 	14849.339794872
scalar Network700.node540 	discovery_resolution_rate 	0
scalar Network700.node640 	rate_of_requesters 	1
[...]
scalar Network700.node260 	number_of_messages 	218
scalar Network700.node260 	discovery_latency 	2532
scalar Network700.node260 	number_of_desired_resources 	20
scalar Network700.node260 	query_homogenity_rate 	33.333333333333
scalar Network700.node260 	qrecord_time 	52122.916845578
scalar Network700.node260 	discovery_resolution_rate 	100
scalar Network700.node160 	rate_of_requesters 	1
scalar Network700.node160 	number_of_resources 	38500
scalar Network700.node160 	time_period 	9
scalar Network700.node160 	number_of_messages 	93
scalar Network700.node160 	discovery_latency 	4344
scalar Network700.node160 	number_of_desired_resources 	20
scalar Network700.node160 	query_homogenity_rate 	33.333333333333
scalar Network700.node160 	qrecord_time 	52254.187406961
scalar Network700.node160 	discovery_resolution_rate 	66.666666666667
scalar Network700.node570 	rate_of_requesters 	1
scalar Network700.node570 	number_of_resources 	38500
scalar Network700.node570 	time_period 	10
scalar Network700.node570 	number_of_messages 	136
scalar Network700.node570 	discovery_latency 	4152
scalar Network700.node570 	number_of_desired_resources 	20
scalar Network700.node570 	query_homogenity_rate 	33.333333333333
scalar Network700.node570 	qrecord_time 	52294.148704211
scalar Network700.node570 	discovery_resolution_rate 	66.666666666667
scalar Network700.node530 	rate_of_requesters 	1
scalar Network700.node530 	number_of_resources 	38500
scalar Network700.node530 	time_period 	10
scalar Network700.node530 	number_of_messages 	26
scalar Network700.node530 	discovery_latency 	4524
scalar Network700.node530 	number_of_desired_resources 	20
scalar Network700.node530 	query_homogenity_rate 	33.333333333333
scalar Network700.node530 	qrecord_time 	52687.663825886
scalar Network700.node530 	discovery_resolution_rate 	33.333333333333
scalar Network700.node600 	rate_of_requesters 	1
scalar Network700.node600 	number_of_resources 	38500
scalar Network700.node600 	time_period 	9
scalar Network700.node600 	number_of_messages 	195
scalar Network700.node600 	discovery_latency 	4368
scalar Network700.node600 	number_of_desired_resources 	20
scalar Network700.node600 	query_homogenity_rate 	33.333333333333
scalar Network700.node600 	qrecord_time 	52752.261776644
scalar Network700.node600 	discovery_resolution_rate 	66.666666666667
scalar Network700.node130 	rate_of_requesters 	1
scalar Network700.node130 	number_of_resources 	38500
scalar Network700.node130 	time_period 	10
scalar Network700.node130 	number_of_messages 	25
scalar Network700.node130 	discovery_latency 	4128
scalar Network700.node130 	number_of_desired_resources 	20
scalar Network700.node130 	query_homogenity_rate 	33.333333333333
scalar Network700.node130 	qrecord_time 	53010.97528477
scalar Network700.node130 	discovery_resolution_rate 	66.666666666667
scalar Network700.node490 	rate_of_requesters 	1
scalar Network700.node490 	number_of_resources 	38500
scalar Network700.node490 	time_period 	10
scalar Network700.node490 	number_of_messages 	6
scalar Network700.node490 	discovery_latency 	4812
scalar Network700.node490 	number_of_desired_resources 	20
scalar Network700.node490 	query_homogenity_rate 	33.333333333333
scalar Network700.node490 	qrecord_time 	53072.952594941
scalar Network700.node490 	discovery_resolution_rate 	33.333333333333
scalar Network700.node70 	rate_of_requesters 	1
scalar Network700.node70 	number_of_resources 	38500
scalar Network700.node70 	time_period 	8
scalar Network700.node70 	number_of_messages 	96
scalar Network700.node70 	discovery_latency 	1380
scalar Network700.node70 	number_of_desired_resources 	20
scalar Network700.node70 	query_homogenity_rate 	33.333333333333
scalar Network700.node70 	qrecord_time 	53090.421285391
scalar Network700.node70 	discovery_resolution_rate 	100
scalar Network700.node220 	rate_of_requesters 	1
scalar Network700.node220 	number_of_resources 	38500
scalar Network700.node220 	time_period 	9
scalar Network700.node220 	number_of_messages 	133
scalar Network700.node220 	discovery_latency 	1644
scalar Network700.node220 	number_of_desired_resources 	20
scalar Network700.node220 	query_homogenity_rate 	33.333333333333
scalar Network700.node220 	qrecord_time 	53658.91936072
scalar Network700.node220 	discovery_resolution_rate 	100
scalar Network700.node0 	rate_of_requesters 	1
scalar Network700.node0 	number_of_resources 	38500
scalar Network700.node0 	time_period 	10
scalar Network700.node0 	number_of_messages 	114
scalar Network700.node0 	discovery_latency 	1296
scalar Network700.node0 	number_of_desired_resources 	20
scalar Network700.node0 	query_homogenity_rate 	33.333333333333
scalar Network700.node0 	qrecord_time 	53953.840233168
scalar Network700.node0 	discovery_resolution_rate 	100
scalar Network700.node170 	rate_of_requesters 	1
scalar Network700.node170 	number_of_resources 	38500
scalar Network700.node170 	time_period 	9
scalar Network700.node170 	number_of_messages 	73
scalar Network700.node170 	discovery_latency 	4656
scalar Network700.node170 	number_of_desired_resources 	20
scalar Network700.node170 	query_homogenity_rate 	33.333333333333
scalar Network700.node170 	qrecord_time 	54230.830345944
scalar Network700.node170 	discovery_resolution_rate 	66.666666666667
scalar Network700.node660 	rate_of_requesters 	1
scalar Network700.node660 	number_of_resources 	38500
scalar Network700.node660 	time_period 	8
scalar Network700.node660 	number_of_messages 	81
scalar Network700.node660 	discovery_latency 	4536
scalar Network700.node660 	number_of_desired_resources 	20
scalar Network700.node660 	query_homogenity_rate 	33.333333333333
scalar Network700.node660 	qrecord_time 	54364.914766795
scalar Network700.node660 	discovery_resolution_rate 	66.666666666667
scalar Network700.node260 	rate_of_requesters 	1
scalar Network700.node260 	number_of_resources 	38500
scalar Network700.node260 	time_period 	10
scalar Network700.node260 	number_of_messages 	66
scalar Network700.node260 	discovery_latency 	4260
scalar Network700.node260 	number_of_desired_resources 	20
scalar Network700.node260 	query_homogenity_rate 	33.333333333333
scalar Network700.node260 	qrecord_time 	54481.600180282
scalar Network700.node260 	discovery_resolution_rate 	66.666666666667
scalar Network700.node170 	rate_of_requesters 	1
scalar Network700.node170 	number_of_resources 	38500
scalar Network700.node170 	time_period 	10
scalar Network700.node170 	number_of_messages 	20
scalar Network700.node170 	discovery_latency 	4260
scalar Network700.node170 	number_of_desired_resources 	20
scalar Network700.node170 	query_homogenity_rate 	33.333333333333
scalar Network700.node170 	qrecord_time 	54662.118229914
scalar Network700.node170 	discovery_resolution_rate 	66.666666666667
scalar Network700.node660 	rate_of_requesters 	1
scalar Network700.node660 	number_of_resources 	38500
scalar Network700.node660 	time_period 	9
scalar Network700.node660 	number_of_messages 	89
scalar Network700.node660 	discovery_latency 	4284
scalar Network700.node660 	number_of_desired_resources 	20
scalar Network700.node660 	query_homogenity_rate 	33.333333333333
scalar Network700.node660 	qrecord_time 	54915.198900772
scalar Network700.node660 	discovery_resolution_rate 	66.666666666667
scalar Network700.node220 	rate_of_requesters 	1
scalar Network700.node220 	number_of_resources 	38500
scalar Network700.node220 	time_period 	8
scalar Network700.node220 	number_of_messages 	43
scalar Network700.node220 	discovery_latency 	4332
scalar Network700.node220 	number_of_desired_resources 	20
scalar Network700.node220 	query_homogenity_rate 	33.333333333333
scalar Network700.node220 	qrecord_time 	55003.85514728
scalar Network700.node220 	discovery_resolution_rate 	66.666666666667
scalar Network700.node70 	rate_of_requesters 	1
scalar Network700.node70 	number_of_resources 	38500
scalar Network700.node70 	time_period 	9
scalar Network700.node70 	number_of_messages 	120
scalar Network700.node70 	discovery_latency 	1824
scalar Network700.node70 	number_of_desired_resources 	20
scalar Network700.node70 	query_homogenity_rate 	33.333333333333
scalar Network700.node70 	qrecord_time 	55415.205279213
scalar Network700.node70 	discovery_resolution_rate 	100
scalar Network700.node60 	rate_of_requesters 	1
scalar Network700.node60 	number_of_resources 	38500
scalar Network700.node60 	time_period 	8
scalar Network700.node60 	number_of_messages 	235
scalar Network700.node60 	discovery_latency 	4680
scalar Network700.node60 	number_of_desired_resources 	20
scalar Network700.node60 	query_homogenity_rate 	33.333333333333
scalar Network700.node60 	qrecord_time 	55503.233947902
scalar Network700.node60 	discovery_resolution_rate 	50
scalar Network700.node660 	rate_of_requesters 	1
scalar Network700.node660 	number_of_resources 	38500
scalar Network700.node660 	time_period 	10
scalar Network700.node660 	number_of_messages 	50
scalar Network700.node660 	discovery_latency 	4200
scalar Network700.node660 	number_of_desired_resources 	20
scalar Network700.node660 	query_homogenity_rate 	33.333333333333
scalar Network700.node660 	qrecord_time 	55643.128875303
scalar Network700.node660 	discovery_resolution_rate 	66.666666666667
scalar Network700.node590 	rate_of_requesters 	1
scalar Network700.node590 	number_of_resources 	38500
scalar Network700.node590 	time_period 	10
scalar Network700.node590 	number_of_messages 	12
scalar Network700.node590 	discovery_latency 	4644
scalar Network700.node590 	number_of_desired_resources 	20
scalar Network700.node590 	query_homogenity_rate 	33.333333333333
scalar Network700.node590 	qrecord_time 	55869.197862438
scalar Network700.node590 	discovery_resolution_rate 	33.333333333333
scalar Network700.node500 	rate_of_requesters 	1
scalar Network700.node500 	number_of_resources 	38500
scalar Network700.node500 	time_period 	10
scalar Network700.node500 	number_of_messages 	277
scalar Network700.node500 	discovery_latency 	3216
scalar Network700.node500 	number_of_desired_resources 	20
scalar Network700.node500 	query_homogenity_rate 	33.333333333333
scalar Network700.node500 	qrecord_time 	55994.574051453
scalar Network700.node500 	discovery_resolution_rate 	100
scalar Network700.node440 	rate_of_requesters 	1
scalar Network700.node440 	number_of_resources 	38500
scalar Network700.node440 	time_period 	8
scalar Network700.node440 	number_of_messages 	129
scalar Network700.node440 	discovery_latency 	1416
scalar Network700.node440 	number_of_desired_resources 	20
scalar Network700.node440 	query_homogenity_rate 	33.333333333333
scalar Network700.node440 	qrecord_time 	56188.66248813
scalar Network700.node440 	discovery_resolution_rate 	100
scalar Network700.node160 	rate_of_requesters 	1
scalar Network700.node160 	number_of_resources 	38500
scalar Network700.node160 	time_period 	10
scalar Network700.node160 	number_of_messages 	52
scalar Network700.node160 	discovery_latency 	4008
scalar Network700.node160 	number_of_desired_resources 	20
scalar Network700.node160 	query_homogenity_rate 	33.333333333333
scalar Network700.node160 	qrecord_time 	56248.205849781
scalar Network700.node160 	discovery_resolution_rate 	66.666666666667
scalar Network700.node400 	rate_of_requesters 	1
scalar Network700.node400 	number_of_resources 	38500
scalar Network700.node400 	time_period 	8
scalar Network700.node400 	number_of_messages 	110
scalar Network700.node400 	discovery_latency 	1236
scalar Network700.node400 	number_of_desired_resources 	20
scalar Network700.node400 	query_homogenity_rate 	33.333333333333
scalar Network700.node400 	qrecord_time 	56787.43714188
scalar Network700.node400 	discovery_resolution_rate 	100
scalar Network700.node400 	rate_of_requesters 	1
scalar Network700.node400 	number_of_resources 	38500
scalar Network700.node400 	time_period 	7
scalar Network700.node400 	number_of_messages 	121
scalar Network700.node400 	discovery_latency 	4272
scalar Network700.node400 	number_of_desired_resources 	20
scalar Network700.node400 	query_homogenity_rate 	33.333333333333
scalar Network700.node400 	qrecord_time 	57703.115518928
scalar Network700.node400 	discovery_resolution_rate 	66.666666666667
scalar Network700.node390 	rate_of_requesters 	1
scalar Network700.node390 	number_of_resources 	38500
scalar Network700.node390 	time_period 	8
scalar Network700.node390 	number_of_messages 	87
scalar Network700.node390 	discovery_latency 	696
scalar Network700.node390 	number_of_desired_resources 	20
scalar Network700.node390 	query_homogenity_rate 	33.333333333333
scalar Network700.node390 	qrecord_time 	57900.71053299
scalar Network700.node390 	discovery_resolution_rate 	100
scalar Network700.node600 	rate_of_requesters 	1
scalar Network700.node600 	number_of_resources 	38500
scalar Network700.node600 	time_period 	10
scalar Network700.node600 	number_of_messages 	42
scalar Network700.node600 	discovery_latency 	575.99999999999
scalar Network700.node600 	number_of_desired_resources 	20
scalar Network700.node600 	query_homogenity_rate 	33.333333333333
scalar Network700.node600 	qrecord_time 	58821.430465989
scalar Network700.node600 	discovery_resolution_rate 	100
scalar Network700.node440 	rate_of_requesters 	1
scalar Network700.node440 	number_of_resources 	38500
scalar Network700.node440 	time_period 	9
scalar Network700.node440 	number_of_messages 	149
scalar Network700.node440 	discovery_latency 	1968
scalar Network700.node440 	number_of_desired_resources 	20
scalar Network700.node440 	query_homogenity_rate 	33.333333333333
scalar Network700.node440 	qrecord_time 	58985.774152437
scalar Network700.node440 	discovery_resolution_rate 	100
scalar Network700.node440 	rate_of_requesters 	1
scalar Network700.node440 	number_of_resources 	38500
scalar Network700.node440 	time_period 	10
scalar Network700.node440 	number_of_messages 	69
scalar Network700.node440 	discovery_latency 	840
scalar Network700.node440 	number_of_desired_resources 	20
scalar Network700.node440 	query_homogenity_rate 	33.333333333333
scalar Network700.node440 	qrecord_time 	59322.121174202
scalar Network700.node440 	discovery_resolution_rate 	100
scalar Network700.node390 	rate_of_requesters 	1
scalar Network700.node390 	number_of_resources 	38500
scalar Network700.node390 	time_period 	9
scalar Network700.node390 	number_of_messages 	141
scalar Network700.node390 	discovery_latency 	2232
scalar Network700.node390 	number_of_desired_resources 	20
scalar Network700.node390 	query_homogenity_rate 	33.333333333333
scalar Network700.node390 	qrecord_time 	59698.881306677
scalar Network700.node390 	discovery_resolution_rate 	100
scalar Network700.node70 	rate_of_requesters 	1
scalar Network700.node70 	number_of_resources 	38500
scalar Network700.node70 	time_period 	10
scalar Network700.node70 	number_of_messages 	78
scalar Network700.node70 	discovery_latency 	1140
scalar Network700.node70 	number_of_desired_resources 	20
scalar Network700.node70 	query_homogenity_rate 	33.333333333333
scalar Network700.node70 	qrecord_time 	59754.612627304
scalar Network700.node70 	discovery_resolution_rate 	100
scalar Network700.node60 	rate_of_requesters 	1
scalar Network700.node60 	number_of_resources 	38500
scalar Network700.node60 	time_period 	10
scalar Network700.node60 	number_of_messages 	133
scalar Network700.node60 	discovery_latency 	2364
scalar Network700.node60 	number_of_desired_resources 	20
scalar Network700.node60 	query_homogenity_rate 	33.333333333333
scalar Network700.node60 	qrecord_time 	61190.126720824
scalar Network700.node60 	discovery_resolution_rate 	100
scalar Network700.node60 	rate_of_requesters 	1
scalar Network700.node60 	number_of_resources 	38500
scalar Network700.node60 	time_period 	9
scalar Network700.node60 	number_of_messages 	178
scalar Network700.node60 	discovery_latency 	3780
scalar Network700.node60 	number_of_desired_resources 	20
scalar Network700.node60 	query_homogenity_rate 	33.333333333333
scalar Network700.node60 	qrecord_time 	62289.887313633
scalar Network700.node60 	discovery_resolution_rate 	100
scalar Network700.node400 	rate_of_requesters 	1
scalar Network700.node400 	number_of_resources 	38500
scalar Network700.node400 	time_period 	9
scalar Network700.node400 	number_of_messages 	37
scalar Network700.node400 	discovery_latency 	491.99999999999
scalar Network700.node400 	number_of_desired_resources 	20
scalar Network700.node400 	query_homogenity_rate 	33.333333333333
scalar Network700.node400 	qrecord_time 	64627.176541375
scalar Network700.node400 	discovery_resolution_rate 	100
scalar Network700.node220 	rate_of_requesters 	1
scalar Network700.node220 	number_of_resources 	38500
scalar Network700.node220 	time_period 	10
scalar Network700.node220 	number_of_messages 	38
scalar Network700.node220 	discovery_latency 	431.99999999999
scalar Network700.node220 	number_of_desired_resources 	20
scalar Network700.node220 	query_homogenity_rate 	33.333333333333
scalar Network700.node220 	qrecord_time 	64919.602390312
scalar Network700.node220 	discovery_resolution_rate 	100
scalar Network700.node400 	rate_of_requesters 	1
scalar Network700.node400 	number_of_resources 	38500
scalar Network700.node400 	time_period 	10
scalar Network700.node400 	number_of_messages 	49
scalar Network700.node400 	discovery_latency 	660
scalar Network700.node400 	number_of_desired_resources 	20
scalar Network700.node400 	query_homogenity_rate 	33.333333333333
scalar Network700.node400 	qrecord_time 	65520.899065945
scalar Network700.node400 	discovery_resolution_rate 	100
scalar Network700.node390 	rate_of_requesters 	1
scalar Network700.node390 	number_of_resources 	38500
scalar Network700.node390 	time_period 	10
scalar Network700.node390 	number_of_messages 	36
scalar Network700.node390 	discovery_latency 	588.00000000001
scalar Network700.node390 	number_of_desired_resources 	20
scalar Network700.node390 	query_homogenity_rate 	33.333333333333
scalar Network700.node390 	qrecord_time 	70934.087807392
scalar Network700.node390 	discovery_resolution_rate 	100
scalar Network700.node300 	rate_of_requesters 	1
scalar Network700.node300 	number_of_resources 	38500
scalar Network700.node300 	time_period 	7
scalar Network700.node300 	number_of_messages 	66
scalar Network700.node300 	discovery_latency 	924.00000000001
scalar Network700.node300 	number_of_desired_resources 	20
scalar Network700.node300 	query_homogenity_rate 	33.333333333333
scalar Network700.node300 	qrecord_time 	83200.593370275
scalar Network700.node300 	discovery_resolution_rate 	100
scalar Network700.node300 	rate_of_requesters 	1
scalar Network700.node300 	number_of_resources 	38500
scalar Network700.node300 	time_period 	8
scalar Network700.node300 	number_of_messages 	52
scalar Network700.node300 	discovery_latency 	552.00000000001
scalar Network700.node300 	number_of_desired_resources 	20
scalar Network700.node300 	query_homogenity_rate 	33.333333333333
scalar Network700.node300 	qrecord_time 	86215.709740093
scalar Network700.node300 	discovery_resolution_rate 	100
scalar Network700.node300 	rate_of_requesters 	1
scalar Network700.node300 	number_of_resources 	38500
scalar Network700.node300 	time_period 	9
scalar Network700.node300 	number_of_messages 	128
scalar Network700.node300 	discovery_latency 	1512
scalar Network700.node300 	number_of_desired_resources 	20
scalar Network700.node300 	query_homogenity_rate 	33.333333333333
scalar Network700.node300 	qrecord_time 	90126.252198103
scalar Network700.node300 	discovery_resolution_rate 	100
scalar Network700.node300 	rate_of_requesters 	1
scalar Network700.node300 	number_of_resources 	38500
scalar Network700.node300 	time_period 	10
scalar Network700.node300 	number_of_messages 	84
scalar Network700.node300 	discovery_latency 	1296
scalar Network700.node300 	number_of_desired_resources 	20
scalar Network700.node300 	query_homogenity_rate 	33.333333333333
scalar Network700.node300 	qrecord_time 	95390.015462682
scalar Network700.node300 	discovery_resolution_rate 	100
