version 2
run net800-1-20150625-06:00:40-27223
attr as 1
attr configname net800
attr datetime 20150625-06:00:40
attr dnor 20
attr experiment net800
attr inifile omnetpp.ini
attr iterationvars "$rhdrq=3, $dnor=20, $as=1"
attr iterationvars2 "$rhdrq=3, $dnor=20, $as=1, $repetition=1"
attr measurement "$rhdrq=3, $dnor=20, $as=1"
attr network Network800
attr processid 27223
attr repetition 1
attr replication #1
attr resultdir results
attr rhdrq 3
attr runnumber 1
attr seedset 1

scalar . 	as 	1
scalar . 	dnor 	20
scalar . 	rhdrq 	3
scalar Network800.node500 	rate_of_requesters 	1
scalar Network800.node500 	number_of_resources 	44000
scalar Network800.node500 	time_period 	1
scalar Network800.node500 	number_of_messages 	57
scalar Network800.node500 	discovery_latency 	900
scalar Network800.node500 	number_of_desired_resources 	20
scalar Network800.node500 	query_homogenity_rate 	33.333333333333
scalar Network800.node500 	qrecord_time 	5614
scalar Network800.node500 	discovery_resolution_rate 	100
scalar Network800.node470 	rate_of_requesters 	1
scalar Network800.node470 	number_of_resources 	44000
scalar Network800.node470 	time_period 	1
scalar Network800.node470 	number_of_messages 	9
scalar Network800.node470 	discovery_latency 	4584
scalar Network800.node470 	number_of_desired_resources 	20
scalar Network800.node470 	query_homogenity_rate 	33.333333333333
scalar Network800.node470 	qrecord_time 	9316
scalar Network800.node470 	discovery_resolution_rate 	66.666666666667
scalar Network800.node630 	rate_of_requesters 	1
scalar Network800.node630 	number_of_resources 	44000
scalar Network800.node630 	time_period 	1
scalar Network800.node630 	number_of_messages 	17
scalar Network800.node630 	discovery_latency 	4596
scalar Network800.node630 	number_of_desired_resources 	20
scalar Network800.node630 	query_homogenity_rate 	33.333333333333
scalar Network800.node630 	qrecord_time 	9328
scalar Network800.node630 	discovery_resolution_rate 	66.666666666667
scalar Network800.node590 	rate_of_requesters 	1
scalar Network800.node590 	number_of_resources 	44000
scalar Network800.node590 	time_period 	1
scalar Network800.node590 	number_of_messages 	46
scalar Network800.node590 	discovery_latency 	4704
scalar Network800.node590 	number_of_desired_resources 	20
scalar Network800.node590 	query_homogenity_rate 	33.333333333333
scalar Network800.node590 	qrecord_time 	9346
scalar Network800.node590 	discovery_resolution_rate 	66.666666666667
scalar Network800.node750 	rate_of_requesters 	1
scalar Network800.node750 	number_of_resources 	44000
scalar Network800.node750 	time_period 	1
scalar Network800.node750 	number_of_messages 	30
scalar Network800.node750 	discovery_latency 	4680
scalar Network800.node750 	number_of_desired_resources 	20
scalar Network800.node750 	query_homogenity_rate 	33.333333333333
scalar Network800.node750 	qrecord_time 	9364
scalar Network800.node750 	discovery_resolution_rate 	66.666666666667
scalar Network800.node330 	rate_of_requesters 	1
scalar Network800.node330 	number_of_resources 	44000
scalar Network800.node330 	time_period 	1
scalar Network800.node330 	number_of_messages 	25
scalar Network800.node330 	discovery_latency 	4692
scalar Network800.node330 	number_of_desired_resources 	20
scalar Network800.node330 	query_homogenity_rate 	33.333333333333
scalar Network800.node330 	qrecord_time 	9382
scalar Network800.node330 	discovery_resolution_rate 	66.666666666667
scalar Network800.node710 	rate_of_requesters 	1
scalar Network800.node710 	number_of_resources 	44000
scalar Network800.node710 	time_period 	1
scalar Network800.node710 	number_of_messages 	16
scalar Network800.node710 	discovery_latency 	4656
scalar Network800.node710 	number_of_desired_resources 	20
scalar Network800.node710 	query_homogenity_rate 	33.333333333333
scalar Network800.node710 	qrecord_time 	9388
scalar Network800.node710 	discovery_resolution_rate 	66.666666666667
scalar Network800.node440 	rate_of_requesters 	1
scalar Network800.node440 	number_of_resources 	44000
scalar Network800.node440 	time_period 	1
scalar Network800.node440 	number_of_messages 	38
scalar Network800.node440 	discovery_latency 	4584
scalar Network800.node440 	number_of_desired_resources 	20
scalar Network800.node440 	query_homogenity_rate 	33.333333333333
scalar Network800.node440 	qrecord_time 	9388
scalar Network800.node440 	discovery_resolution_rate 	66.666666666667
scalar Network800.node490 	rate_of_requesters 	1
scalar Network800.node490 	number_of_resources 	44000
scalar Network800.node490 	time_period 	1
scalar Network800.node490 	number_of_messages 	15
scalar Network800.node490 	discovery_latency 	4668
scalar Network800.node490 	number_of_desired_resources 	20
scalar Network800.node490 	query_homogenity_rate 	33.333333333333
scalar Network800.node490 	qrecord_time 	9400
scalar Network800.node490 	discovery_resolution_rate 	66.666666666667
scalar Network800.node270 	rate_of_requesters 	1
scalar Network800.node270 	number_of_resources 	44000
scalar Network800.node270 	time_period 	1
scalar Network800.node270 	number_of_messages 	31
scalar Network800.node270 	discovery_latency 	4728
scalar Network800.node270 	number_of_desired_resources 	20
scalar Network800.node270 	query_homogenity_rate 	33.333333333333
scalar Network800.node270 	qrecord_time 	9400
scalar Network800.node270 	discovery_resolution_rate 	66.666666666667
scalar Network800.node190 	rate_of_requesters 	1
scalar Network800.node190 	number_of_resources 	44000
scalar Network800.node190 	time_period 	1
scalar Network800.node190 	number_of_messages 	10
scalar Network800.node190 	discovery_latency 	4680
scalar Network800.node190 	number_of_desired_resources 	20
scalar Network800.node190 	query_homogenity_rate 	33.333333333333
scalar Network800.node190 	qrecord_time 	9412
scalar Network800.node190 	discovery_resolution_rate 	66.666666666667
scalar Network800.node360 	rate_of_requesters 	1
scalar Network800.node360 	number_of_resources 	44000
scalar Network800.node360 	time_period 	1
scalar Network800.node360 	number_of_messages 	10
scalar Network800.node360 	discovery_latency 	4704
scalar Network800.node360 	number_of_desired_resources 	20
scalar Network800.node360 	query_homogenity_rate 	33.333333333333
scalar Network800.node360 	qrecord_time 	9430
scalar Network800.node360 	discovery_resolution_rate 	66.666666666667
scalar Network800.node450 	rate_of_requesters 	1
scalar Network800.node450 	number_of_resources 	44000
scalar Network800.node450 	time_period 	1
scalar Network800.node450 	number_of_messages 	19
scalar Network800.node450 	discovery_latency 	4716
scalar Network800.node450 	number_of_desired_resources 	20
scalar Network800.node450 	query_homogenity_rate 	33.333333333333
scalar Network800.node450 	qrecord_time 	9442
scalar Network800.node450 	discovery_resolution_rate 	33.333333333333
scalar Network800.node410 	rate_of_requesters 	1
scalar Network800.node410 	number_of_resources 	44000
scalar Network800.node410 	time_period 	1
scalar Network800.node410 	number_of_messages 	52
scalar Network800.node410 	discovery_latency 	4728
scalar Network800.node410 	number_of_desired_resources 	20
scalar Network800.node410 	query_homogenity_rate 	33.333333333333
scalar Network800.node410 	qrecord_time 	9442
scalar Network800.node410 	discovery_resolution_rate 	33.333333333333
scalar Network800.node310 	rate_of_requesters 	1
scalar Network800.node310 	number_of_resources 	44000
scalar Network800.node310 	time_period 	1
scalar Network800.node310 	number_of_messages 	50
scalar Network800.node310 	discovery_latency 	4728
scalar Network800.node310 	number_of_desired_resources 	20
scalar Network800.node310 	query_homogenity_rate 	33.333333333333
scalar Network800.node310 	qrecord_time 	9460
scalar Network800.node310 	discovery_resolution_rate 	66.666666666667
scalar Network800.node230 	rate_of_requesters 	1
scalar Network800.node230 	number_of_resources 	44000
scalar Network800.node230 	time_period 	1
scalar Network800.node230 	number_of_messages 	13
scalar Network800.node230 	discovery_latency 	4800
scalar Network800.node230 	number_of_desired_resources 	20
scalar Network800.node230 	query_homogenity_rate 	33.333333333333
scalar Network800.node230 	qrecord_time 	9466
scalar Network800.node230 	discovery_resolution_rate 	66.666666666667
scalar Network800.node380 	rate_of_requesters 	1
scalar Network800.node380 	number_of_resources 	44000
scalar Network800.node380 	time_period 	1
scalar Network800.node380 	number_of_messages 	8
scalar Network800.node380 	discovery_latency 	4680
scalar Network800.node380 	number_of_desired_resources 	20
scalar Network800.node380 	query_homogenity_rate 	33.333333333333
scalar Network800.node380 	qrecord_time 	9484
scalar Network800.node380 	discovery_resolution_rate 	33.333333333333
scalar Network800.node480 	rate_of_requesters 	1
scalar Network800.node480 	number_of_resources 	44000
scalar Network800.node480 	time_period 	1
scalar Network800.node480 	number_of_messages 	9
scalar Network800.node480 	discovery_latency 	4800
scalar Network800.node480 	number_of_desired_resources 	20
scalar Network800.node480 	query_homogenity_rate 	33.333333333333
scalar Network800.node480 	qrecord_time 	9490
scalar Network800.node480 	discovery_resolution_rate 	33.333333333333
scalar Network800.node420 	rate_of_requesters 	1
scalar Network800.node420 	number_of_resources 	44000
scalar Network800.node420 	time_period 	1
scalar Network800.node420 	number_of_messages 	82
scalar Network800.node420 	discovery_latency 	4788
scalar Network800.node420 	number_of_desired_resources 	20
scalar Network800.node420 	query_homogenity_rate 	33.333333333333
scalar Network800.node420 	qrecord_time 	9496
scalar Network800.node420 	discovery_resolution_rate 	33.333333333333
scalar Network800.node580 	rate_of_requesters 	1
scalar Network800.node580 	number_of_resources 	44000
scalar Network800.node580 	time_period 	1
scalar Network800.node580 	number_of_messages 	4
scalar Network800.node580 	discovery_latency 	4776
scalar Network800.node580 	number_of_desired_resources 	20
scalar Network800.node580 	query_homogenity_rate 	33.333333333333
scalar Network800.node580 	qrecord_time 	9514
scalar Network800.node580 	discovery_resolution_rate 	33.333333333333
scalar Network800.node460 	rate_of_requesters 	1
scalar Network800.node460 	number_of_resources 	44000
scalar Network800.node460 	time_period 	1
scalar Network800.node460 	number_of_messages 	34
scalar Network800.node460 	discovery_latency 	4836
scalar Network800.node460 	number_of_desired_resources 	20
scalar Network800.node460 	query_homogenity_rate 	33.333333333333
scalar Network800.node460 	qrecord_time 	9520
scalar Network800.node460 	discovery_resolution_rate 	33.333333333333
scalar Network800.node100 	rate_of_requesters 	1
scalar Network800.node100 	number_of_resources 	44000
scalar Network800.node100 	time_period 	1
scalar Network800.node100 	number_of_messages 	2
scalar Network800.node100 	discovery_latency 	4800
scalar Network800.node100 	number_of_desired_resources 	20
scalar Network800.node100 	query_homogenity_rate 	33.333333333333
scalar Network800.node100 	qrecord_time 	9520
scalar Network800.node100 	discovery_resolution_rate 	33.333333333333
scalar Network800.node130 	rate_of_requesters 	1
scalar Network800.node130 	number_of_resources 	44000
scalar Network800.node130 	time_period 	1
scalar Network800.node130 	number_of_messages 	16
scalar Network800.node130 	discovery_latency 	4776
scalar Network800.node130 	number_of_desired_resources 	20
scalar Network800.node130 	query_homogenity_rate 	33.333333333333
scalar Network800.node130 	qrecord_time 	9520
scalar Network800.node130 	discovery_resolution_rate 	33.333333333333
scalar Network800.node790 	rate_of_requesters 	1
scalar Network800.node790 	number_of_resources 	44000
scalar Network800.node790 	time_period 	1
scalar Network800.node790 	number_of_messages 	10
scalar Network800.node790 	discovery_latency 	4836
scalar Network800.node790 	number_of_desired_resources 	20
scalar Network800.node790 	query_homogenity_rate 	33.333333333333
scalar Network800.node790 	qrecord_time 	9526
scalar Network800.node790 	discovery_resolution_rate 	33.333333333333
scalar Network800.node60 	rate_of_requesters 	1
scalar Network800.node60 	number_of_resources 	44000
scalar Network800.node60 	time_period 	1
scalar Network800.node60 	number_of_messages 	9
scalar Network800.node60 	discovery_latency 	4860
scalar Network800.node60 	number_of_desired_resources 	20
scalar Network800.node60 	query_homogenity_rate 	33.333333333333
scalar Network800.node60 	qrecord_time 	9526
scalar Network800.node60 	discovery_resolution_rate 	33.333333333333
scalar Network800.node620 	rate_of_requesters 	1
scalar Network800.node620 	number_of_resources 	44000
scalar Network800.node620 	time_period 	1
scalar Network800.node620 	number_of_messages 	34
scalar Network800.node620 	discovery_latency 	4692
scalar Network800.node620 	number_of_desired_resources 	20
scalar Network800.node620 	query_homogenity_rate 	33.333333333333
scalar Network800.node620 	qrecord_time 	9532
scalar Network800.node620 	discovery_resolution_rate 	66.666666666667
scalar Network800.node540 	rate_of_requesters 	1
scalar Network800.node540 	number_of_resources 	44000
scalar Network800.node540 	time_period 	1
scalar Network800.node540 	number_of_messages 	18
scalar Network800.node540 	discovery_latency 	4848
scalar Network800.node540 	number_of_desired_resources 	20
scalar Network800.node540 	query_homogenity_rate 	33.333333333333
scalar Network800.node540 	qrecord_time 	9538
scalar Network800.node540 	discovery_resolution_rate 	66.666666666667
scalar Network800.node290 	rate_of_requesters 	1
scalar Network800.node290 	number_of_resources 	44000
scalar Network800.node290 	time_period 	1
scalar Network800.node290 	number_of_messages 	5
scalar Network800.node290 	discovery_latency 	4764
scalar Network800.node290 	number_of_desired_resources 	20
scalar Network800.node290 	query_homogenity_rate 	33.333333333333
scalar Network800.node290 	qrecord_time 	9538
scalar Network800.node290 	discovery_resolution_rate 	33.333333333333
scalar Network800.node610 	rate_of_requesters 	1
scalar Network800.node610 	number_of_resources 	44000
scalar Network800.node610 	time_period 	1
scalar Network800.node610 	number_of_messages 	59
scalar Network800.node610 	discovery_latency 	4824
scalar Network800.node610 	number_of_desired_resources 	20
scalar Network800.node610 	query_homogenity_rate 	33.333333333333
scalar Network800.node610 	qrecord_time 	9550
scalar Network800.node610 	discovery_resolution_rate 	33.333333333333
scalar Network800.node370 	rate_of_requesters 	1
scalar Network800.node370 	number_of_resources 	44000
scalar Network800.node370 	time_period 	1
scalar Network800.node370 	number_of_messages 	18
scalar Network800.node370 	discovery_latency 	4884
scalar Network800.node370 	number_of_desired_resources 	20
scalar Network800.node370 	query_homogenity_rate 	33.333333333333
scalar Network800.node370 	qrecord_time 	9550
scalar Network800.node370 	discovery_resolution_rate 	33.333333333333
scalar Network800.node390 	rate_of_requesters 	1
scalar Network800.node390 	number_of_resources 	44000
scalar Network800.node390 	time_period 	1
scalar Network800.node390 	number_of_messages 	19
scalar Network800.node390 	discovery_latency 	4848
scalar Network800.node390 	number_of_desired_resources 	20
scalar Network800.node390 	query_homogenity_rate 	33.333333333333
scalar Network800.node390 	qrecord_time 	9556
scalar Network800.node390 	discovery_resolution_rate 	33.333333333333
scalar Network800.node680 	rate_of_requesters 	1
scalar Network800.node680 	number_of_resources 	44000
scalar Network800.node680 	time_period 	1
scalar Network800.node680 	number_of_messages 	14
scalar Network800.node680 	discovery_latency 	4812
scalar Network800.node680 	number_of_desired_resources 	20
scalar Network800.node680 	query_homogenity_rate 	33.333333333333
scalar Network800.node680 	qrecord_time 	9562
scalar Network800.node680 	discovery_resolution_rate 	33.333333333333
scalar Network800.node400 	rate_of_requesters 	1
scalar Network800.node400 	number_of_resources 	44000
scalar Network800.node400 	time_period 	1
scalar Network800.node400 	number_of_messages 	31
scalar Network800.node400 	discovery_latency 	4728
scalar Network800.node400 	number_of_desired_resources 	20
scalar Network800.node400 	query_homogenity_rate 	33.333333333333
scalar Network800.node400 	qrecord_time 	9562
scalar Network800.node400 	discovery_resolution_rate 	33.333333333333
scalar Network800.node640 	rate_of_requesters 	1
scalar Network800.node640 	number_of_resources 	44000
scalar Network800.node640 	time_period 	1
scalar Network800.node640 	number_of_messages 	10
scalar Network800.node640 	discovery_latency 	4884
scalar Network800.node640 	number_of_desired_resources 	20
scalar Network800.node640 	query_homogenity_rate 	33.333333333333
scalar Network800.node640 	qrecord_time 	9568
scalar Network800.node640 	discovery_resolution_rate 	66.666666666667
scalar Network800.node740 	rate_of_requesters 	1
scalar Network800.node740 	number_of_resources 	44000
scalar Network800.node740 	time_period 	1
scalar Network800.node740 	number_of_messages 	10
scalar Network800.node740 	discovery_latency 	4800
scalar Network800.node740 	number_of_desired_resources 	20
scalar Network800.node740 	query_homogenity_rate 	33.333333333333
scalar Network800.node740 	qrecord_time 	9568
scalar Network800.node740 	discovery_resolution_rate 	66.666666666667
scalar Network800.node260 	rate_of_requesters 	1
scalar Network800.node260 	number_of_resources 	44000
scalar Network800.node260 	time_period 	1
scalar Network800.node260 	number_of_messages 	50
scalar Network800.node260 	discovery_latency 	4764
scalar Network800.node260 	number_of_desired_resources 	20
scalar Network800.node260 	query_homogenity_rate 	33.333333333333
scalar Network800.node260 	qrecord_time 	9568
scalar Network800.node260 	discovery_resolution_rate 	33.333333333333
scalar Network800.node430 	rate_of_requesters 	1
scalar Network800.node430 	number_of_resources 	44000
scalar Network800.node430 	time_period 	1
scalar Network800.node430 	number_of_messages 	8
scalar Network800.node430 	discovery_latency 	4764
scalar Network800.node430 	number_of_desired_resources 	20
scalar Network800.node430 	query_homogenity_rate 	33.333333333333
scalar Network800.node430 	qrecord_time 	9568
scalar Network800.node430 	discovery_resolution_rate 	33.333333333333
scalar Network800.node720 	rate_of_requesters 	1
scalar Network800.node720 	number_of_resources 	44000
scalar Network800.node720 	time_period 	1
scalar Network800.node720 	number_of_messages 	5
scalar Network800.node720 	discovery_latency 	4776
scalar Network800.node720 	number_of_desired_resources 	20
scalar Network800.node720 	query_homogenity_rate 	33.333333333333
scalar Network800.node720 	qrecord_time 	9568
scalar Network800.node720 	discovery_resolution_rate 	33.333333333333
scalar Network800.node300 	rate_of_requesters 	1
scalar Network800.node300 	number_of_resources 	44000
scalar Network800.node300 	time_period 	1
scalar Network800.node300 	number_of_messages 	27
scalar Network800.node300 	discovery_latency 	4860
scalar Network800.node300 	number_of_desired_resources 	20
scalar Network800.node300 	query_homogenity_rate 	33.333333333333
scalar Network800.node300 	qrecord_time 	9574
scalar Network800.node300 	discovery_resolution_rate 	66.666666666667
scalar Network800.node210 	rate_of_requesters 	1
scalar Network800.node210 	number_of_resources 	44000
scalar Network800.node210 	time_period 	1
scalar Network800.node210 	number_of_messages 	17
scalar Network800.node210 	discovery_latency 	4884
scalar Network800.node210 	number_of_desired_resources 	20
scalar Network800.node210 	query_homogenity_rate 	33.333333333333
scalar Network800.node210 	qrecord_time 	9580
scalar Network800.node210 	discovery_resolution_rate 	33.333333333333
scalar Network800.node0 	rate_of_requesters 	1
scalar Network800.node0 	number_of_resources 	44000
scalar Network800.node0 	time_period 	1
scalar Network800.node0 	number_of_messages 	18
scalar Network800.node0 	discovery_latency 	4920
scalar Network800.node0 	number_of_desired_resources 	20
scalar Network800.node0 	query_homogenity_rate 	33.333333333333
scalar Network800.node0 	qrecord_time 	9586
scalar Network800.node0 	discovery_resolution_rate 	66.666666666667
scalar Network800.node250 	rate_of_requesters 	1
scalar Network800.node250 	number_of_resources 	44000
scalar Network800.node250 	time_period 	1
scalar Network800.node250 	number_of_messages 	19
scalar Network800.node250 	discovery_latency 	4812
scalar Network800.node250 	number_of_desired_resources 	20
scalar Network800.node250 	query_homogenity_rate 	33.333333333333
scalar Network800.node250 	qrecord_time 	9604
scalar Network800.node250 	discovery_resolution_rate 	33.333333333333
scalar Network800.node600 	rate_of_requesters 	1
scalar Network800.node600 	number_of_resources 	44000
scalar Network800.node600 	time_period 	1
scalar Network800.node600 	number_of_messages 	219
scalar Network800.node600 	discovery_latency 	4884
scalar Network800.node600 	number_of_desired_resources 	20
scalar Network800.node600 	query_homogenity_rate 	33.333333333333
scalar Network800.node600 	qrecord_time 	9610
scalar Network800.node600 	discovery_resolution_rate 	50
scalar Network800.node700 	rate_of_requesters 	1
scalar Network800.node700 	number_of_resources 	44000
scalar Network800.node700 	time_period 	1
scalar Network800.node700 	number_of_messages 	25
scalar Network800.node700 	discovery_latency 	4908
scalar Network800.node700 	number_of_desired_resources 	20
scalar Network800.node700 	query_homogenity_rate 	33.333333333333
scalar Network800.node700 	qrecord_time 	9622
scalar Network800.node700 	discovery_resolution_rate 	33.333333333333
scalar Network800.node50 	rate_of_requesters 	1
scalar Network800.node50 	number_of_resources 	44000
scalar Network800.node50 	time_period 	1
scalar Network800.node50 	number_of_messages 	29
scalar Network800.node50 	discovery_latency 	4884
scalar Network800.node50 	number_of_desired_resources 	20
scalar Network800.node50 	query_homogenity_rate 	33.333333333333
scalar Network800.node50 	qrecord_time 	9622
scalar Network800.node50 	discovery_resolution_rate 	33.333333333333
scalar Network800.node110 	rate_of_requesters 	1
scalar Network800.node110 	number_of_resources 	44000
scalar Network800.node110 	time_period 	1
scalar Network800.node110 	number_of_messages 	47
scalar Network800.node110 	discovery_latency 	4848
scalar Network800.node110 	number_of_desired_resources 	20
scalar Network800.node110 	query_homogenity_rate 	33.333333333333
scalar Network800.node110 	qrecord_time 	9628
scalar Network800.node110 	discovery_resolution_rate 	33.333333333333
scalar Network800.node340 	rate_of_requesters 	1
scalar Network800.node340 	number_of_resources 	44000
scalar Network800.node340 	time_period 	1
scalar Network800.node340 	number_of_messages 	32
scalar Network800.node340 	discovery_latency 	4884
scalar Network800.node340 	number_of_desired_resources 	20
scalar Network800.node340 	query_homogenity_rate 	33.333333333333
scalar Network800.node340 	qrecord_time 	9634
scalar Network800.node340 	discovery_resolution_rate 	33.333333333333
scalar Network800.node670 	rate_of_requesters 	1
scalar Network800.node670 	number_of_resources 	44000
scalar Network800.node670 	time_period 	1
scalar Network800.node670 	number_of_messages 	36
scalar Network800.node670 	discovery_latency 	4968
scalar Network800.node670 	number_of_desired_resources 	20
scalar Network800.node670 	query_homogenity_rate 	33.333333333333
scalar Network800.node670 	qrecord_time 	9640
scalar Network800.node670 	discovery_resolution_rate 	66.666666666667
scalar Network800.node510 	rate_of_requesters 	1
scalar Network800.node510 	number_of_resources 	44000
scalar Network800.node510 	time_period 	1
scalar Network800.node510 	number_of_messages 	9
scalar Network800.node510 	discovery_latency 	4944
scalar Network800.node510 	number_of_desired_resources 	20
scalar Network800.node510 	query_homogenity_rate 	33.333333333333
scalar Network800.node510 	qrecord_time 	9652
scalar Network800.node510 	discovery_resolution_rate 	66.666666666667
scalar Network800.node150 	rate_of_requesters 	1
scalar Network800.node150 	number_of_resources 	44000
scalar Network800.node150 	time_period 	2
scalar Network800.node150 	number_of_messages 	9
scalar Network800.node150 	discovery_latency 	4884
scalar Network800.node150 	number_of_desired_resources 	20
scalar Network800.node150 	query_homogenity_rate 	33.333333333333
scalar Network800.node150 	qrecord_time 	9659.419032636
scalar Network800.node150 	discovery_resolution_rate 	33.333333333333
scalar Network800.node70 	rate_of_requesters 	1
scalar Network800.node70 	number_of_resources 	44000
scalar Network800.node70 	time_period 	1
scalar Network800.node70 	number_of_messages 	223
scalar Network800.node70 	discovery_latency 	4968
scalar Network800.node70 	number_of_desired_resources 	20
scalar Network800.node70 	query_homogenity_rate 	33.333333333333
scalar Network800.node70 	qrecord_time 	9682
scalar Network800.node70 	discovery_resolution_rate 	50
scalar Network800.node760 	rate_of_requesters 	1
scalar Network800.node760 	number_of_resources 	44000
scalar Network800.node760 	time_period 	1
scalar Network800.node760 	number_of_messages 	7
scalar Network800.node760 	discovery_latency 	4956
scalar Network800.node760 	number_of_desired_resources 	20
scalar Network800.node760 	query_homogenity_rate 	33.333333333333
scalar Network800.node760 	qrecord_time 	9682
scalar Network800.node760 	discovery_resolution_rate 	33.333333333333
scalar Network800.node40 	rate_of_requesters 	1
scalar Network800.node40 	number_of_resources 	44000
scalar Network800.node40 	time_period 	1
scalar Network800.node40 	number_of_messages 	6
scalar Network800.node40 	discovery_latency 	4908
scalar Network800.node40 	number_of_desired_resources 	20
scalar Network800.node40 	query_homogenity_rate 	33.333333333333
scalar Network800.node40 	qrecord_time 	9682
scalar Network800.node40 	discovery_resolution_rate 	33.333333333333
scalar Network800.node140 	rate_of_requesters 	1
scalar Network800.node140 	number_of_resources 	44000
scalar Network800.node140 	time_period 	1
scalar Network800.node140 	number_of_messages 	43
scalar Network800.node140 	discovery_latency 	4920
scalar Network800.node140 	number_of_desired_resources 	20
scalar Network800.node140 	query_homogenity_rate 	33.333333333333
scalar Network800.node140 	qrecord_time 	9694
scalar Network800.node140 	discovery_resolution_rate 	33.333333333333
scalar Network800.node290 	rate_of_requesters 	1
scalar Network800.node290 	number_of_resources 	44000
scalar Network800.node290 	time_period 	2
scalar Network800.node290 	number_of_messages 	5
scalar Network800.node290 	discovery_latency 	4848
scalar Network800.node290 	number_of_desired_resources 	20
scalar Network800.node290 	query_homogenity_rate 	33.333333333333
scalar Network800.node290 	qrecord_time 	9705.308992662
scalar Network800.node290 	discovery_resolution_rate 	33.333333333333
scalar Network800.node80 	rate_of_requesters 	1
scalar Network800.node80 	number_of_resources 	44000
scalar Network800.node80 	time_period 	1
scalar Network800.node80 	number_of_messages 	5
scalar Network800.node80 	discovery_latency 	4944
scalar Network800.node80 	number_of_desired_resources 	20
scalar Network800.node80 	query_homogenity_rate 	33.333333333333
scalar Network800.node80 	qrecord_time 	9712
scalar Network800.node80 	discovery_resolution_rate 	33.333333333333
scalar Network800.node180 	rate_of_requesters 	1
scalar Network800.node180 	number_of_resources 	44000
scalar Network800.node180 	time_period 	1
scalar Network800.node180 	number_of_messages 	17
scalar Network800.node180 	discovery_latency 	4980
scalar Network800.node180 	number_of_desired_resources 	20
scalar Network800.node180 	query_homogenity_rate 	33.333333333333
scalar Network800.node180 	qrecord_time 	9718
scalar Network800.node180 	discovery_resolution_rate 	33.333333333333
scalar Network800.node560 	rate_of_requesters 	1
scalar Network800.node560 	number_of_resources 	44000
scalar Network800.node560 	time_period 	1
scalar Network800.node560 	number_of_messages 	5
scalar Network800.node560 	discovery_latency 	4968
scalar Network800.node560 	number_of_desired_resources 	20
scalar Network800.node560 	query_homogenity_rate 	33.333333333333
scalar Network800.node560 	qrecord_time 	9724
scalar Network800.node560 	discovery_resolution_rate 	33.333333333333
scalar Network800.node120 	rate_of_requesters 	1
scalar Network800.node120 	number_of_resources 	44000
scalar Network800.node120 	time_period 	1
scalar Network800.node120 	number_of_messages 	37
scalar Network800.node120 	discovery_latency 	4872
scalar Network800.node120 	number_of_desired_resources 	20
scalar Network800.node120 	query_homogenity_rate 	33.333333333333
scalar Network800.node120 	qrecord_time 	9730
scalar Network800.node120 	discovery_resolution_rate 	33.333333333333
scalar Network800.node660 	rate_of_requesters 	1
scalar Network800.node660 	number_of_resources 	44000
scalar Network800.node660 	time_period 	1
scalar Network800.node660 	number_of_messages 	26
scalar Network800.node660 	discovery_latency 	4992
scalar Network800.node660 	number_of_desired_resources 	20
scalar Network800.node660 	query_homogenity_rate 	33.333333333333
scalar Network800.node660 	qrecord_time 	9742
scalar Network800.node660 	discovery_resolution_rate 	33.333333333333
scalar Network800.node280 	rate_of_requesters 	1
scalar Network800.node280 	number_of_resources 	44000
scalar Network800.node280 	time_period 	1
scalar Network800.node280 	number_of_messages 	9
scalar Network800.node280 	discovery_latency 	4908
scalar Network800.node280 	number_of_desired_resources 	20
scalar Network800.node280 	query_homogenity_rate 	33.333333333333
scalar Network800.node280 	qrecord_time 	9748
scalar Network800.node280 	discovery_resolution_rate 	33.333333333333
scalar Network800.node350 	rate_of_requesters 	1
scalar Network800.node350 	number_of_resources 	44000
scalar Network800.node350 	time_period 	1
scalar Network800.node350 	number_of_messages 	18
scalar Network800.node350 	discovery_latency 	5028
scalar Network800.node350 	number_of_desired_resources 	20
scalar Network800.node350 	query_homogenity_rate 	33.333333333333
scalar Network800.node350 	qrecord_time 	9748
scalar Network800.node350 	discovery_resolution_rate 	33.333333333333
scalar Network800.node650 	rate_of_requesters 	1
scalar Network800.node650 	number_of_resources 	44000
scalar Network800.node650 	time_period 	1
scalar Network800.node650 	number_of_messages 	28
scalar Network800.node650 	discovery_latency 	4932
scalar Network800.node650 	number_of_desired_resources 	20
scalar Network800.node650 	query_homogenity_rate 	33.333333333333
scalar Network800.node650 	qrecord_time 	9826
scalar Network800.node650 	discovery_resolution_rate 	33.333333333333
scalar Network800.node730 	rate_of_requesters 	1
scalar Network800.node730 	number_of_resources 	44000
scalar Network800.node730 	time_period 	1
scalar Network800.node730 	number_of_messages 	30
scalar Network800.node730 	discovery_latency 	4932
scalar Network800.node730 	number_of_desired_resources 	20
scalar Network800.node730 	query_homogenity_rate 	33.333333333333
scalar Network800.node730 	qrecord_time 	9826
scalar Network800.node730 	discovery_resolution_rate 	33.333333333333
scalar Network800.node780 	rate_of_requesters 	1
scalar Network800.node780 	number_of_resources 	44000
scalar Network800.node780 	time_period 	1
scalar Network800.node780 	number_of_messages 	12
scalar Network800.node780 	discovery_latency 	5064
scalar Network800.node780 	number_of_desired_resources 	20
scalar Network800.node780 	query_homogenity_rate 	33.333333333333
scalar Network800.node780 	qrecord_time 	9874
scalar Network800.node780 	discovery_resolution_rate 	33.333333333333
scalar Network800.node160 	rate_of_requesters 	1
scalar Network800.node160 	number_of_resources 	44000
scalar Network800.node160 	time_period 	1
scalar Network800.node160 	number_of_messages 	36
scalar Network800.node160 	discovery_latency 	5112
scalar Network800.node160 	number_of_desired_resources 	20
scalar Network800.node160 	query_homogenity_rate 	33.333333333333
scalar Network800.node160 	qrecord_time 	9898
scalar Network800.node160 	discovery_resolution_rate 	33.333333333333
scalar Network800.node80 	rate_of_requesters 	1
scalar Network800.node80 	number_of_resources 	44000
scalar Network800.node80 	time_period 	2
scalar Network800.node80 	number_of_messages 	26
scalar Network800.node80 	discovery_latency 	4980
scalar Network800.node80 	number_of_desired_resources 	20
scalar Network800.node80 	query_homogenity_rate 	33.333333333333
scalar Network800.node80 	qrecord_time 	10017.59355775
scalar Network800.node80 	discovery_resolution_rate 	33.333333333333
scalar Network800.node450 	rate_of_requesters 	1
scalar Network800.node450 	number_of_resources 	44000
scalar Network800.node450 	time_period 	2
scalar Network800.node450 	number_of_messages 	31
scalar Network800.node450 	discovery_latency 	4932
scalar Network800.node450 	number_of_desired_resources 	20
scalar Network800.node450 	query_homogenity_rate 	33.333333333333
scalar Network800.node450 	qrecord_time 	10096.410925456
scalar Network800.node450 	discovery_resolution_rate 	33.333333333333
scalar Network800.node690 	rate_of_requesters 	1
scalar Network800.node690 	number_of_resources 	44000
scalar Network800.node690 	time_period 	3
scalar Network800.node690 	number_of_messages 	9
scalar Network800.node690 	discovery_latency 	4860
scalar Network800.node690 	number_of_desired_resources 	20
scalar Network800.node690 	query_homogenity_rate 	33.333333333333
scalar Network800.node690 	qrecord_time 	10108.443931123
scalar Network800.node690 	discovery_resolution_rate 	33.333333333333
scalar Network800.node230 	rate_of_requesters 	1
scalar Network800.node230 	number_of_resources 	44000
scalar Network800.node230 	time_period 	2
scalar Network800.node230 	number_of_messages 	19
scalar Network800.node230 	discovery_latency 	4836
scalar Network800.node230 	number_of_desired_resources 	20
scalar Network800.node230 	query_homogenity_rate 	33.333333333333
scalar Network800.node230 	qrecord_time 	10117.909484543
scalar Network800.node230 	discovery_resolution_rate 	33.333333333333
scalar Network800.node250 	rate_of_requesters 	1
scalar Network800.node250 	number_of_resources 	44000
scalar Network800.node250 	time_period 	2
scalar Network800.node250 	number_of_messages 	23
scalar Network800.node250 	discovery_latency 	4848
scalar Network800.node250 	number_of_desired_resources 	20
scalar Network800.node250 	query_homogenity_rate 	33.333333333333
scalar Network800.node250 	qrecord_time 	10137.381869424
scalar Network800.node250 	discovery_resolution_rate 	33.333333333333
scalar Network800.node100 	rate_of_requesters 	1
scalar Network800.node100 	number_of_resources 	44000
scalar Network800.node100 	time_period 	2
scalar Network800.node100 	number_of_messages 	4
scalar Network800.node100 	discovery_latency 	5028
scalar Network800.node100 	number_of_desired_resources 	20
scalar Network800.node100 	query_homogenity_rate 	33.333333333333
scalar Network800.node100 	qrecord_time 	10318.069352174
scalar Network800.node100 	discovery_resolution_rate 	33.333333333333
scalar Network800.node20 	rate_of_requesters 	1
scalar Network800.node20 	number_of_resources 	44000
scalar Network800.node20 	time_period 	1
scalar Network800.node20 	number_of_messages 	2
scalar Network800.node20 	discovery_latency 	6666
scalar Network800.node20 	number_of_desired_resources 	20
scalar Network800.node20 	query_homogenity_rate 	33.333333333333
scalar Network800.node20 	qrecord_time 	11356
scalar Network800.node20 	discovery_resolution_rate 	0
scalar Network800.node220 	rate_of_requesters 	1
scalar Network800.node220 	number_of_resources 	44000
scalar Network800.node220 	time_period 	1
scalar Network800.node220 	number_of_messages 	2
scalar Network800.node220 	discovery_latency 	6678
scalar Network800.node220 	number_of_desired_resources 	20
scalar Network800.node220 	query_homogenity_rate 	33.333333333333
scalar Network800.node220 	qrecord_time 	11392
scalar Network800.node220 	discovery_resolution_rate 	0
scalar Network800.node200 	rate_of_requesters 	1
scalar Network800.node200 	number_of_resources 	44000
scalar Network800.node200 	time_period 	1
scalar Network800.node200 	number_of_messages 	2
scalar Network800.node200 	discovery_latency 	6666
scalar Network800.node200 	number_of_desired_resources 	20
scalar Network800.node200 	query_homogenity_rate 	33.333333333333
scalar Network800.node200 	qrecord_time 	11392
scalar Network800.node200 	discovery_resolution_rate 	0
scalar Network800.node150 	rate_of_requesters 	1
scalar Network800.node150 	number_of_resources 	44000
scalar Network800.node150 	time_period 	1
scalar Network800.node150 	number_of_messages 	2
scalar Network800.node150 	discovery_latency 	6726
scalar Network800.node150 	number_of_desired_resources 	20
scalar Network800.node150 	query_homogenity_rate 	33.333333333333
scalar Network800.node150 	qrecord_time 	11416
scalar Network800.node150 	discovery_resolution_rate 	0
scalar Network800.node30 	rate_of_requesters 	1
scalar Network800.node30 	number_of_resources 	44000
scalar Network800.node30 	time_period 	1
scalar Network800.node30 	number_of_messages 	362
scalar Network800.node30 	discovery_latency 	6690
scalar Network800.node30 	number_of_desired_resources 	20
scalar Network800.node30 	query_homogenity_rate 	33.333333333333
scalar Network800.node30 	qrecord_time 	11422
scalar Network800.node30 	discovery_resolution_rate 	50
scalar Network800.node170 	rate_of_requesters 	1
scalar Network800.node170 	number_of_resources 	44000
scalar Network800.node170 	time_period 	1
scalar Network800.node170 	number_of_messages 	2
scalar Network800.node170 	discovery_latency 	6762
scalar Network800.node170 	number_of_desired_resources 	20
scalar Network800.node170 	query_homogenity_rate 	33.333333333333
scalar Network800.node170 	qrecord_time 	11452
scalar Network800.node170 	discovery_resolution_rate 	0
scalar Network800.node320 	rate_of_requesters 	1
scalar Network800.node320 	number_of_resources 	44000
scalar Network800.node320 	time_period 	1
scalar Network800.node320 	number_of_messages 	560
scalar Network800.node320 	discovery_latency 	6690
scalar Network800.node320 	number_of_desired_resources 	20
scalar Network800.node320 	query_homogenity_rate 	33.333333333333
scalar Network800.node320 	qrecord_time 	11482
scalar Network800.node320 	discovery_resolution_rate 	33.333333333333
scalar Network800.node240 	rate_of_requesters 	1
scalar Network800.node240 	number_of_resources 	44000
scalar Network800.node240 	time_period 	2
scalar Network800.node240 	number_of_messages 	2
scalar Network800.node240 	discovery_latency 	6702
scalar Network800.node240 	number_of_desired_resources 	20
scalar Network800.node240 	query_homogenity_rate 	33.333333333333
scalar Network800.node240 	qrecord_time 	11511.625137276
scalar Network800.node240 	discovery_resolution_rate 	0
scalar Network800.node90 	rate_of_requesters 	1
scalar Network800.node90 	number_of_resources 	44000
scalar Network800.node90 	time_period 	1
scalar Network800.node90 	number_of_messages 	10
scalar Network800.node90 	discovery_latency 	6834
scalar Network800.node90 	number_of_desired_resources 	20
scalar Network800.node90 	query_homogenity_rate 	33.333333333333
scalar Network800.node90 	qrecord_time 	11524
scalar Network800.node90 	discovery_resolution_rate 	33.333333333333
scalar Network800.node570 	rate_of_requesters 	1
scalar Network800.node570 	number_of_resources 	44000
scalar Network800.node570 	time_period 	1
scalar Network800.node570 	number_of_messages 	2
scalar Network800.node570 	discovery_latency 	6822
scalar Network800.node570 	number_of_desired_resources 	20
scalar Network800.node570 	query_homogenity_rate 	33.333333333333
scalar Network800.node570 	qrecord_time 	11530
scalar Network800.node570 	discovery_resolution_rate 	0
scalar Network800.node520 	rate_of_requesters 	1
scalar Network800.node520 	number_of_resources 	44000
scalar Network800.node520 	time_period 	1
scalar Network800.node520 	number_of_messages 	2
scalar Network800.node520 	discovery_latency 	6774
scalar Network800.node520 	number_of_desired_resources 	20
scalar Network800.node520 	query_homogenity_rate 	33.333333333333
scalar Network800.node520 	qrecord_time 	11542
scalar Network800.node520 	discovery_resolution_rate 	0
scalar Network800.node690 	rate_of_requesters 	1
scalar Network800.node690 	number_of_resources 	44000
scalar Network800.node690 	time_period 	1
scalar Network800.node690 	number_of_messages 	8
scalar Network800.node690 	discovery_latency 	6834
scalar Network800.node690 	number_of_desired_resources 	20
scalar Network800.node690 	query_homogenity_rate 	33.333333333333
scalar Network800.node690 	qrecord_time 	11566
scalar Network800.node690 	discovery_resolution_rate 	33.333333333333
scalar Network800.node530 	rate_of_requesters 	1
scalar Network800.node530 	number_of_resources 	44000
scalar Network800.node530 	time_period 	1
scalar Network800.node530 	number_of_messages 	2
scalar Network800.node530 	discovery_latency 	6762
scalar Network800.node530 	number_of_desired_resources 	20
scalar Network800.node530 	query_homogenity_rate 	33.333333333333
scalar Network800.node530 	qrecord_time 	11572
scalar Network800.node530 	discovery_resolution_rate 	0
scalar Network800.node550 	rate_of_requesters 	1
scalar Network800.node550 	number_of_resources 	44000
scalar Network800.node550 	time_period 	1
scalar Network800.node550 	number_of_messages 	14
scalar Network800.node550 	discovery_latency 	6870
scalar Network800.node550 	number_of_desired_resources 	20
scalar Network800.node550 	query_homogenity_rate 	33.333333333333
scalar Network800.node550 	qrecord_time 	11590
scalar Network800.node550 	discovery_resolution_rate 	33.333333333333
scalar Network800.node690 	rate_of_requesters 	1
scalar Network800.node690 	number_of_resources 	44000
scalar Network800.node690 	time_period 	2
scalar Network800.node690 	number_of_messages 	2
scalar Network800.node690 	discovery_latency 	6774
scalar Network800.node690 	number_of_desired_resources 	20
scalar Network800.node690 	query_homogenity_rate 	33.333333333333
scalar Network800.node690 	qrecord_time 	11593.222727596
scalar Network800.node690 	discovery_resolution_rate 	0
scalar Network800.node770 	rate_of_requesters 	1
scalar Network800.node770 	number_of_resources 	44000
scalar Network800.node770 	time_period 	1
scalar Network800.node770 	number_of_messages 	2
scalar Network800.node770 	discovery_latency 	6798
scalar Network800.node770 	number_of_desired_resources 	20
scalar Network800.node770 	query_homogenity_rate 	33.333333333333
scalar Network800.node770 	qrecord_time 	11608
scalar Network800.node770 	discovery_resolution_rate 	0
scalar Network800.node10 	rate_of_requesters 	1
scalar Network800.node10 	number_of_resources 	44000
scalar Network800.node10 	time_period 	1
scalar Network800.node10 	number_of_messages 	353
scalar Network800.node10 	discovery_latency 	6894
scalar Network800.node10 	number_of_desired_resources 	20
scalar Network800.node10 	query_homogenity_rate 	33.333333333333
scalar Network800.node10 	qrecord_time 	11608
scalar Network800.node10 	discovery_resolution_rate 	16.666666666667
scalar Network800.node240 	rate_of_requesters 	1
scalar Network800.node240 	number_of_resources 	44000
scalar Network800.node240 	time_period 	1
scalar Network800.node240 	number_of_messages 	2
scalar Network800.node240 	discovery_latency 	6834
scalar Network800.node240 	number_of_desired_resources 	20
scalar Network800.node240 	query_homogenity_rate 	33.333333333333
scalar Network800.node240 	qrecord_time 	11620
scalar Network800.node240 	discovery_resolution_rate 	0
scalar Network800.node590 	rate_of_requesters 	1
scalar Network800.node590 	number_of_resources 	44000
scalar Network800.node590 	time_period 	2
scalar Network800.node590 	number_of_messages 	2
scalar Network800.node590 	discovery_latency 	6702
scalar Network800.node590 	number_of_desired_resources 	20
scalar Network800.node590 	query_homogenity_rate 	33.333333333333
scalar Network800.node590 	qrecord_time 	11792.445324492
scalar Network800.node590 	discovery_resolution_rate 	0
scalar Network800.node20 	rate_of_requesters 	1
scalar Network800.node20 	number_of_resources 	44000
scalar Network800.node20 	time_period 	2
scalar Network800.node20 	number_of_messages 	2
scalar Network800.node20 	discovery_latency 	6798
scalar Network800.node20 	number_of_desired_resources 	20
scalar Network800.node20 	query_homogenity_rate 	33.333333333333
scalar Network800.node20 	qrecord_time 	11928.821128675
scalar Network800.node20 	discovery_resolution_rate 	0
scalar Network800.node240 	rate_of_requesters 	1
scalar Network800.node240 	number_of_resources 	44000
scalar Network800.node240 	time_period 	4
scalar Network800.node240 	number_of_messages 	2
scalar Network800.node240 	discovery_latency 	6762
scalar Network800.node240 	number_of_desired_resources 	20
scalar Network800.node240 	query_homogenity_rate 	33.333333333333
scalar Network800.node240 	qrecord_time 	11945.163279793
scalar Network800.node240 	discovery_resolution_rate 	0
scalar Network800.node620 	rate_of_requesters 	1
scalar Network800.node620 	number_of_resources 	44000
scalar Network800.node620 	time_period 	2
scalar Network800.node620 	number_of_messages 	2
scalar Network800.node620 	discovery_latency 	6798
scalar Network800.node620 	number_of_desired_resources 	20
scalar Network800.node620 	query_homogenity_rate 	33.333333333333
scalar Network800.node620 	qrecord_time 	11949.275767042
scalar Network800.node620 	discovery_resolution_rate 	0
scalar Network800.node480 	rate_of_requesters 	1
scalar Network800.node480 	number_of_resources 	44000
scalar Network800.node480 	time_period 	2
scalar Network800.node480 	number_of_messages 	2
scalar Network800.node480 	discovery_latency 	6774
scalar Network800.node480 	number_of_desired_resources 	20
scalar Network800.node480 	query_homogenity_rate 	33.333333333333
scalar Network800.node480 	qrecord_time 	11980.339653705
scalar Network800.node480 	discovery_resolution_rate 	0
scalar Network800.node160 	rate_of_requesters 	1
scalar Network800.node160 	number_of_resources 	44000
scalar Network800.node160 	time_period 	2
scalar Network800.node160 	number_of_messages 	2
scalar Network800.node160 	discovery_latency 	6738
scalar Network800.node160 	number_of_desired_resources 	20
scalar Network800.node160 	query_homogenity_rate 	33.333333333333
scalar Network800.node160 	qrecord_time 	12040.226427844
scalar Network800.node160 	discovery_resolution_rate 	0
scalar Network800.node570 	rate_of_requesters 	1
scalar Network800.node570 	number_of_resources 	44000
scalar Network800.node570 	time_period 	2
scalar Network800.node570 	number_of_messages 	2
scalar Network800.node570 	discovery_latency 	6786
scalar Network800.node570 	number_of_desired_resources 	20
scalar Network800.node570 	query_homogenity_rate 	33.333333333333
scalar Network800.node570 	qrecord_time 	12048.973013961
scalar Network800.node570 	discovery_resolution_rate 	0
scalar Network800.node360 	rate_of_requesters 	1
scalar Network800.node360 	number_of_resources 	44000
scalar Network800.node360 	time_period 	2
scalar Network800.node360 	number_of_messages 	2
scalar Network800.node360 	discovery_latency 	6714
scalar Network800.node360 	number_of_desired_resources 	20
scalar Network800.node360 	query_homogenity_rate 	33.333333333333
scalar Network800.node360 	qrecord_time 	12057.526024511
scalar Network800.node360 	discovery_resolution_rate 	0
scalar Network800.node760 	rate_of_requesters 	1
scalar Network800.node760 	number_of_resources 	44000
scalar Network800.node760 	time_period 	2
scalar Network800.node760 	number_of_messages 	2
scalar Network800.node760 	discovery_latency 	6726
scalar Network800.node760 	number_of_desired_resources 	20
scalar Network800.node760 	query_homogenity_rate 	33.333333333333
scalar Network800.node760 	qrecord_time 	12196.158049045
scalar Network800.node760 	discovery_resolution_rate 	0
scalar Network800.node500 	rate_of_requesters 	1
scalar Network800.node500 	number_of_resources 	44000
scalar Network800.node500 	time_period 	2
scalar Network800.node500 	number_of_messages 	2
scalar Network800.node500 	discovery_latency 	6642
scalar Network800.node500 	number_of_desired_resources 	20
scalar Network800.node500 	query_homogenity_rate 	33.333333333333
scalar Network800.node500 	qrecord_time 	12314.824654906
scalar Network800.node500 	discovery_resolution_rate 	0
scalar Network800.node240 	rate_of_requesters 	1
scalar Network800.node240 	number_of_resources 	44000
scalar Network800.node240 	time_period 	3
scalar Network800.node240 	number_of_messages 	2
scalar Network800.node240 	discovery_latency 	7134
scalar Network800.node240 	number_of_desired_resources 	20
scalar Network800.node240 	query_homogenity_rate 	33.333333333333
scalar Network800.node240 	qrecord_time 	12315.706494958
scalar Network800.node240 	discovery_resolution_rate 	0
scalar Network800.node530 	rate_of_requesters 	1
scalar Network800.node530 	number_of_resources 	44000
scalar Network800.node530 	time_period 	2
scalar Network800.node530 	number_of_messages 	304
scalar Network800.node530 	discovery_latency 	5934
scalar Network800.node530 	number_of_desired_resources 	20
scalar Network800.node530 	query_homogenity_rate 	33.333333333333
scalar Network800.node530 	qrecord_time 	12324.349050832
scalar Network800.node530 	discovery_resolution_rate 	33.333333333333
scalar Network800.node540 	rate_of_requesters 	1
scalar Network800.node540 	number_of_resources 	44000
scalar Network800.node540 	time_period 	2
scalar Network800.node540 	number_of_messages 	2
scalar Network800.node540 	discovery_latency 	6762
scalar Network800.node540 	number_of_desired_resources 	20
scalar Network800.node540 	query_homogenity_rate 	33.333333333333
scalar Network800.node540 	qrecord_time 	12383.429213666
scalar Network800.node540 	discovery_resolution_rate 	0
scalar Network800.node320 	rate_of_requesters 	1
scalar Network800.node320 	number_of_resources 	44000
scalar Network800.node320 	time_period 	2
scalar Network800.node320 	number_of_messages 	2
scalar Network800.node320 	discovery_latency 	6798
scalar Network800.node320 	number_of_desired_resources 	20
scalar Network800.node320 	query_homogenity_rate 	33.333333333333
scalar Network800.node320 	qrecord_time 	12470.39715475
scalar Network800.node320 	discovery_resolution_rate 	0
scalar Network800.node190 	rate_of_requesters 	1
scalar Network800.node190 	number_of_resources 	44000
scalar Network800.node190 	time_period 	2
scalar Network800.node190 	number_of_messages 	2
scalar Network800.node190 	discovery_latency 	6870
scalar Network800.node190 	number_of_desired_resources 	20
scalar Network800.node190 	query_homogenity_rate 	33.333333333333
scalar Network800.node190 	qrecord_time 	12498.208667754
scalar Network800.node190 	discovery_resolution_rate 	0
scalar Network800.node410 	rate_of_requesters 	1
scalar Network800.node410 	number_of_resources 	44000
scalar Network800.node410 	time_period 	2
scalar Network800.node410 	number_of_messages 	2
scalar Network800.node410 	discovery_latency 	6642
scalar Network800.node410 	number_of_desired_resources 	20
scalar Network800.node410 	query_homogenity_rate 	33.333333333333
scalar Network800.node410 	qrecord_time 	12561.543812247
scalar Network800.node410 	discovery_resolution_rate 	0
scalar Network800.node140 	rate_of_requesters 	1
scalar Network800.node140 	number_of_resources 	44000
scalar Network800.node140 	time_period 	2
scalar Network800.node140 	number_of_messages 	296
scalar Network800.node140 	discovery_latency 	5754
scalar Network800.node140 	number_of_desired_resources 	20
scalar Network800.node140 	query_homogenity_rate 	33.333333333333
scalar Network800.node140 	qrecord_time 	12620.881854792
scalar Network800.node140 	discovery_resolution_rate 	33.333333333333
scalar Network800.node300 	rate_of_requesters 	1
scalar Network800.node300 	number_of_resources 	44000
scalar Network800.node300 	time_period 	2
scalar Network800.node300 	number_of_messages 	2
scalar Network800.node300 	discovery_latency 	6750
scalar Network800.node300 	number_of_desired_resources 	20
scalar Network800.node300 	query_homogenity_rate 	33.333333333333
scalar Network800.node300 	qrecord_time 	12707.916743009
scalar Network800.node300 	discovery_resolution_rate 	0
scalar Network800.node450 	rate_of_requesters 	1
scalar Network800.node450 	number_of_resources 	44000
scalar Network800.node450 	time_period 	3
scalar Network800.node450 	number_of_messages 	2
scalar Network800.node450 	discovery_latency 	6546
scalar Network800.node450 	number_of_desired_resources 	20
scalar Network800.node450 	query_homogenity_rate 	33.333333333333
scalar Network800.node450 	qrecord_time 	12722.096452883
scalar Network800.node450 	discovery_resolution_rate 	0
scalar Network800.node170 	rate_of_requesters 	1
scalar Network800.node170 	number_of_resources 	44000
scalar Network800.node170 	time_period 	2
scalar Network800.node170 	number_of_messages 	222
scalar Network800.node170 	discovery_latency 	4692
scalar Network800.node170 	number_of_desired_resources 	20
scalar Network800.node170 	query_homogenity_rate 	33.333333333333
scalar Network800.node170 	qrecord_time 	12774.592079972
scalar Network800.node170 	discovery_resolution_rate 	33.333333333333
scalar Network800.node270 	rate_of_requesters 	1
scalar Network800.node270 	number_of_resources 	44000
scalar Network800.node270 	time_period 	3
scalar Network800.node270 	number_of_messages 	9
scalar Network800.node270 	discovery_latency 	4812
scalar Network800.node270 	number_of_desired_resources 	20
scalar Network800.node270 	query_homogenity_rate 	33.333333333333
scalar Network800.node270 	qrecord_time 	12817.875226618
scalar Network800.node270 	discovery_resolution_rate 	33.333333333333
scalar Network800.node10 	rate_of_requesters 	1
scalar Network800.node10 	number_of_resources 	44000
scalar Network800.node10 	time_period 	2
scalar Network800.node10 	number_of_messages 	2
scalar Network800.node10 	discovery_latency 	6762
scalar Network800.node10 	number_of_desired_resources 	20
scalar Network800.node10 	query_homogenity_rate 	33.333333333333
scalar Network800.node10 	qrecord_time 	12849.058819182
scalar Network800.node10 	discovery_resolution_rate 	0
scalar Network800.node560 	rate_of_requesters 	1
scalar Network800.node560 	number_of_resources 	44000
scalar Network800.node560 	time_period 	2
scalar Network800.node560 	number_of_messages 	2
scalar Network800.node560 	discovery_latency 	6630
scalar Network800.node560 	number_of_desired_resources 	20
scalar Network800.node560 	query_homogenity_rate 	33.333333333333
scalar Network800.node560 	qrecord_time 	12956.783904619
scalar Network800.node560 	discovery_resolution_rate 	0
scalar Network800.node390 	rate_of_requesters 	1
scalar Network800.node390 	number_of_resources 	44000
scalar Network800.node390 	time_period 	2
scalar Network800.node390 	number_of_messages 	2
scalar Network800.node390 	discovery_latency 	6810
scalar Network800.node390 	number_of_desired_resources 	20
scalar Network800.node390 	query_homogenity_rate 	33.333333333333
scalar Network800.node390 	qrecord_time 	12981.94204527
scalar Network800.node390 	discovery_resolution_rate 	0
scalar Network800.node700 	rate_of_requesters 	1
scalar Network800.node700 	number_of_resources 	44000
scalar Network800.node700 	time_period 	2
scalar Network800.node700 	number_of_messages 	2
scalar Network800.node700 	discovery_latency 	6774
scalar Network800.node700 	number_of_desired_resources 	20
scalar Network800.node700 	query_homogenity_rate 	33.333333333333
scalar Network800.node700 	qrecord_time 	12987.501887688
scalar Network800.node700 	discovery_resolution_rate 	0
scalar Network800.node200 	rate_of_requesters 	1
scalar Network800.node200 	number_of_resources 	44000
scalar Network800.node200 	time_period 	2
scalar Network800.node200 	number_of_messages 	2
scalar Network800.node200 	discovery_latency 	6762
scalar Network800.node200 	number_of_desired_resources 	20
scalar Network800.node200 	query_homogenity_rate 	33.333333333333
scalar Network800.node200 	qrecord_time 	13059.617143831
scalar Network800.node200 	discovery_resolution_rate 	0
scalar Network800.node510 	rate_of_requesters 	1
scalar Network800.node510 	number_of_resources 	44000
scalar Network800.node510 	time_period 	2
scalar Network800.node510 	number_of_messages 	2
scalar Network800.node510 	discovery_latency 	6702
scalar Network800.node510 	number_of_desired_resources 	20
scalar Network800.node510 	query_homogenity_rate 	33.333333333333
scalar Network800.node510 	qrecord_time 	13065.60375254
scalar Network800.node510 	discovery_resolution_rate 	0
scalar Network800.node380 	rate_of_requesters 	1
scalar Network800.node380 	number_of_resources 	44000
scalar Network800.node380 	time_period 	2
scalar Network800.node380 	number_of_messages 	2
scalar Network800.node380 	discovery_latency 	6714
scalar Network800.node380 	number_of_desired_resources 	20
scalar Network800.node380 	query_homogenity_rate 	33.333333333333
scalar Network800.node380 	qrecord_time 	13134.310962803
scalar Network800.node380 	discovery_resolution_rate 	0
scalar Network800.node120 	rate_of_requesters 	1
scalar Network800.node120 	number_of_resources 	44000
scalar Network800.node120 	time_period 	2
scalar Network800.node120 	number_of_messages 	2
scalar Network800.node120 	discovery_latency 	6630
scalar Network800.node120 	number_of_desired_resources 	20
scalar Network800.node120 	query_homogenity_rate 	33.333333333333
scalar Network800.node120 	qrecord_time 	13143.232047434
scalar Network800.node120 	discovery_resolution_rate 	0
scalar Network800.node30 	rate_of_requesters 	1
scalar Network800.node30 	number_of_resources 	44000
scalar Network800.node30 	time_period 	2
scalar Network800.node30 	number_of_messages 	2
scalar Network800.node30 	discovery_latency 	6618
scalar Network800.node30 	number_of_desired_resources 	20
scalar Network800.node30 	query_homogenity_rate 	33.333333333333
scalar Network800.node30 	qrecord_time 	13146.471047633
scalar Network800.node30 	discovery_resolution_rate 	0
scalar Network800.node540 	rate_of_requesters 	1
scalar Network800.node540 	number_of_resources 	44000
scalar Network800.node540 	time_period 	3
scalar Network800.node540 	number_of_messages 	2
scalar Network800.node540 	discovery_latency 	6786
scalar Network800.node540 	number_of_desired_resources 	20
scalar Network800.node540 	query_homogenity_rate 	33.333333333333
scalar Network800.node540 	qrecord_time 	13179.2411532
scalar Network800.node540 	discovery_resolution_rate 	0
scalar Network800.node300 	rate_of_requesters 	1
scalar Network800.node300 	number_of_resources 	44000
scalar Network800.node300 	time_period 	3
scalar Network800.node300 	number_of_messages 	2
scalar Network800.node300 	discovery_latency 	6882
scalar Network800.node300 	number_of_desired_resources 	20
scalar Network800.node300 	query_homogenity_rate 	33.333333333333
scalar Network800.node300 	qrecord_time 	13185.999661327
scalar Network800.node300 	discovery_resolution_rate 	0
scalar Network800.node790 	rate_of_requesters 	1
scalar Network800.node790 	number_of_resources 	44000
scalar Network800.node790 	time_period 	2
scalar Network800.node790 	number_of_messages 	2
scalar Network800.node790 	discovery_latency 	6618
scalar Network800.node790 	number_of_desired_resources 	20
scalar Network800.node790 	query_homogenity_rate 	33.333333333333
scalar Network800.node790 	qrecord_time 	13187.613480529
scalar Network800.node790 	discovery_resolution_rate 	0
scalar Network800.node550 	rate_of_requesters 	1
scalar Network800.node550 	number_of_resources 	44000
scalar Network800.node550 	time_period 	2
scalar Network800.node550 	number_of_messages 	0
scalar Network800.node550 	discovery_latency 	6882
scalar Network800.node550 	number_of_desired_resources 	20
scalar Network800.node550 	query_homogenity_rate 	33.333333333333
scalar Network800.node550 	qrecord_time 	13210.385424192
scalar Network800.node550 	discovery_resolution_rate 	0
scalar Network800.node180 	rate_of_requesters 	1
scalar Network800.node180 	number_of_resources 	44000
scalar Network800.node180 	time_period 	2
scalar Network800.node180 	number_of_messages 	2
scalar Network800.node180 	discovery_latency 	6798
scalar Network800.node180 	number_of_desired_resources 	20
scalar Network800.node180 	query_homogenity_rate 	33.333333333333
scalar Network800.node180 	qrecord_time 	13214.412224843
scalar Network800.node180 	discovery_resolution_rate 	0
scalar Network800.node10 	rate_of_requesters 	1
scalar Network800.node10 	number_of_resources 	44000
scalar Network800.node10 	time_period 	3
scalar Network800.node10 	number_of_messages 	2
scalar Network800.node10 	discovery_latency 	6666
scalar Network800.node10 	number_of_desired_resources 	20
scalar Network800.node10 	query_homogenity_rate 	33.333333333333
scalar Network800.node10 	qrecord_time 	13222.24546512
scalar Network800.node10 	discovery_resolution_rate 	0
scalar Network800.node740 	rate_of_requesters 	1
scalar Network800.node740 	number_of_resources 	44000
scalar Network800.node740 	time_period 	2
scalar Network800.node740 	number_of_messages 	2
scalar Network800.node740 	discovery_latency 	6810
scalar Network800.node740 	number_of_desired_resources 	20
scalar Network800.node740 	query_homogenity_rate 	33.333333333333
scalar Network800.node740 	qrecord_time 	13238.709005598
scalar Network800.node740 	discovery_resolution_rate 	0
scalar Network800.node190 	rate_of_requesters 	1
scalar Network800.node190 	number_of_resources 	44000
scalar Network800.node190 	time_period 	3
scalar Network800.node190 	number_of_messages 	2
scalar Network800.node190 	discovery_latency 	6726
scalar Network800.node190 	number_of_desired_resources 	20
scalar Network800.node190 	query_homogenity_rate 	33.333333333333
scalar Network800.node190 	qrecord_time 	13297.378404223
scalar Network800.node190 	discovery_resolution_rate 	0
scalar Network800.node280 	rate_of_requesters 	1
scalar Network800.node280 	number_of_resources 	44000
scalar Network800.node280 	time_period 	2
scalar Network800.node280 	number_of_messages 	2
scalar Network800.node280 	discovery_latency 	6942
scalar Network800.node280 	number_of_desired_resources 	20
scalar Network800.node280 	query_homogenity_rate 	33.333333333333
scalar Network800.node280 	qrecord_time 	13314.321437012
scalar Network800.node280 	discovery_resolution_rate 	0
scalar Network800.node420 	rate_of_requesters 	1
scalar Network800.node420 	number_of_resources 	44000
scalar Network800.node420 	time_period 	2
scalar Network800.node420 	number_of_messages 	2
scalar Network800.node420 	discovery_latency 	6630
scalar Network800.node420 	number_of_desired_resources 	20
scalar Network800.node420 	query_homogenity_rate 	33.333333333333
scalar Network800.node420 	qrecord_time 	13362.11315303
scalar Network800.node420 	discovery_resolution_rate 	0
scalar Network800.node360 	rate_of_requesters 	1
scalar Network800.node360 	number_of_resources 	44000
scalar Network800.node360 	time_period 	4
scalar Network800.node360 	number_of_messages 	2
scalar Network800.node360 	discovery_latency 	6630
scalar Network800.node360 	number_of_desired_resources 	20
scalar Network800.node360 	query_homogenity_rate 	33.333333333333
scalar Network800.node360 	qrecord_time 	13379.164707403
scalar Network800.node360 	discovery_resolution_rate 	0
scalar Network800.node700 	rate_of_requesters 	1
scalar Network800.node700 	number_of_resources 	44000
scalar Network800.node700 	time_period 	3
scalar Network800.node700 	number_of_messages 	2
scalar Network800.node700 	discovery_latency 	7014
scalar Network800.node700 	number_of_desired_resources 	20
scalar Network800.node700 	query_homogenity_rate 	33.333333333333
scalar Network800.node700 	qrecord_time 	13424.15224206
scalar Network800.node700 	discovery_resolution_rate 	0
scalar Network800.node510 	rate_of_requesters 	1
scalar Network800.node510 	number_of_resources 	44000
scalar Network800.node510 	time_period 	4
scalar Network800.node510 	number_of_messages 	283
scalar Network800.node510 	discovery_latency 	5418
scalar Network800.node510 	number_of_desired_resources 	20
scalar Network800.node510 	query_homogenity_rate 	33.333333333333
scalar Network800.node510 	qrecord_time 	13468.480245405
scalar Network800.node510 	discovery_resolution_rate 	33.333333333333
scalar Network800.node480 	rate_of_requesters 	1
scalar Network800.node480 	number_of_resources 	44000
scalar Network800.node480 	time_period 	3
scalar Network800.node480 	number_of_messages 	2
scalar Network800.node480 	discovery_latency 	6666
scalar Network800.node480 	number_of_desired_resources 	20
scalar Network800.node480 	query_homogenity_rate 	33.333333333333
scalar Network800.node480 	qrecord_time 	13502.370145953
scalar Network800.node480 	discovery_resolution_rate 	0
scalar Network800.node360 	rate_of_requesters 	1
scalar Network800.node360 	number_of_resources 	44000
scalar Network800.node360 	time_period 	3
scalar Network800.node360 	number_of_messages 	2
scalar Network800.node360 	discovery_latency 	6846
scalar Network800.node360 	number_of_desired_resources 	20
scalar Network800.node360 	query_homogenity_rate 	33.333333333333
scalar Network800.node360 	qrecord_time 	13505.088395512
scalar Network800.node360 	discovery_resolution_rate 	0
scalar Network800.node720 	rate_of_requesters 	1
scalar Network800.node720 	number_of_resources 	44000
scalar Network800.node720 	time_period 	2
scalar Network800.node720 	number_of_messages 	2
scalar Network800.node720 	discovery_latency 	6654
scalar Network800.node720 	number_of_desired_resources 	20
scalar Network800.node720 	query_homogenity_rate 	33.333333333333
scalar Network800.node720 	qrecord_time 	13527.495272233
scalar Network800.node720 	discovery_resolution_rate 	0
scalar Network800.node700 	rate_of_requesters 	1
scalar Network800.node700 	number_of_resources 	44000
scalar Network800.node700 	time_period 	4
scalar Network800.node700 	number_of_messages 	91
scalar Network800.node700 	discovery_latency 	6798
scalar Network800.node700 	number_of_desired_resources 	20
scalar Network800.node700 	query_homogenity_rate 	33.333333333333
scalar Network800.node700 	qrecord_time 	13540.212828718
scalar Network800.node700 	discovery_resolution_rate 	33.333333333333
scalar Network800.node270 	rate_of_requesters 	1
scalar Network800.node270 	number_of_resources 	44000
scalar Network800.node270 	time_period 	4
scalar Network800.node270 	number_of_messages 	183
scalar Network800.node270 	discovery_latency 	4764
scalar Network800.node270 	number_of_desired_resources 	20
scalar Network800.node270 	query_homogenity_rate 	33.333333333333
scalar Network800.node270 	qrecord_time 	13585.888420059
scalar Network800.node270 	discovery_resolution_rate 	33.333333333333
scalar Network800.node660 	rate_of_requesters 	1
scalar Network800.node660 	number_of_resources 	44000
scalar Network800.node660 	time_period 	2
scalar Network800.node660 	number_of_messages 	2
scalar Network800.node660 	discovery_latency 	6882
scalar Network800.node660 	number_of_desired_resources 	20
scalar Network800.node660 	query_homogenity_rate 	33.333333333333
scalar Network800.node660 	qrecord_time 	13606.423556607
scalar Network800.node660 	discovery_resolution_rate 	0
scalar Network800.node300 	rate_of_requesters 	1
scalar Network800.node300 	number_of_resources 	44000
scalar Network800.node300 	time_period 	4
scalar Network800.node300 	number_of_messages 	2
scalar Network800.node300 	discovery_latency 	6582
scalar Network800.node300 	number_of_desired_resources 	20
scalar Network800.node300 	query_homogenity_rate 	33.333333333333
scalar Network800.node300 	qrecord_time 	13625.508007513
scalar Network800.node300 	discovery_resolution_rate 	0
scalar Network800.node520 	rate_of_requesters 	1
scalar Network800.node520 	number_of_resources 	44000
scalar Network800.node520 	time_period 	2
scalar Network800.node520 	number_of_messages 	75
scalar Network800.node520 	discovery_latency 	6774
scalar Network800.node520 	number_of_desired_resources 	20
scalar Network800.node520 	query_homogenity_rate 	33.333333333333
scalar Network800.node520 	qrecord_time 	13824.493981237
scalar Network800.node520 	discovery_resolution_rate 	33.333333333333
scalar Network800.node130 	rate_of_requesters 	1
scalar Network800.node130 	number_of_resources 	44000
scalar Network800.node130 	time_period 	3
scalar Network800.node130 	number_of_messages 	231
scalar Network800.node130 	discovery_latency 	4932
scalar Network800.node130 	number_of_desired_resources 	20
scalar Network800.node130 	query_homogenity_rate 	33.333333333333
scalar Network800.node130 	qrecord_time 	13827.164430219
scalar Network800.node130 	discovery_resolution_rate 	33.333333333333
scalar Network800.node650 	rate_of_requesters 	1
scalar Network800.node650 	number_of_resources 	44000
scalar Network800.node650 	time_period 	3
scalar Network800.node650 	number_of_messages 	180
scalar Network800.node650 	discovery_latency 	4872
scalar Network800.node650 	number_of_desired_resources 	20
scalar Network800.node650 	query_homogenity_rate 	33.333333333333
scalar Network800.node650 	qrecord_time 	13857.900896804
scalar Network800.node650 	discovery_resolution_rate 	33.333333333333
scalar Network800.node780 	rate_of_requesters 	1
scalar Network800.node780 	number_of_resources 	44000
scalar Network800.node780 	time_period 	2
scalar Network800.node780 	number_of_messages 	2
scalar Network800.node780 	discovery_latency 	6738
scalar Network800.node780 	number_of_desired_resources 	20
scalar Network800.node780 	query_homogenity_rate 	33.333333333333
scalar Network800.node780 	qrecord_time 	13921.772470986
scalar Network800.node780 	discovery_resolution_rate 	0
scalar Network800.node270 	rate_of_requesters 	1
scalar Network800.node270 	number_of_resources 	44000
scalar Network800.node270 	time_period 	2
scalar Network800.node270 	number_of_messages 	0
scalar Network800.node270 	discovery_latency 	6798
scalar Network800.node270 	number_of_desired_resources 	20
scalar Network800.node270 	query_homogenity_rate 	33.333333333333
scalar Network800.node270 	qrecord_time 	13922.055346389
scalar Network800.node270 	discovery_resolution_rate 	0
scalar Network800.node140 	rate_of_requesters 	1
scalar Network800.node140 	number_of_resources 	44000
scalar Network800.node140 	time_period 	3
scalar Network800.node140 	number_of_messages 	67
scalar Network800.node140 	discovery_latency 	4968
scalar Network800.node140 	number_of_desired_resources 	20
scalar Network800.node140 	query_homogenity_rate 	33.333333333333
scalar Network800.node140 	qrecord_time 	13930.48384117
scalar Network800.node140 	discovery_resolution_rate 	33.333333333333
scalar Network800.node440 	rate_of_requesters 	1
scalar Network800.node440 	number_of_resources 	44000
scalar Network800.node440 	time_period 	2
scalar Network800.node440 	number_of_messages 	2
scalar Network800.node440 	discovery_latency 	6690
scalar Network800.node440 	number_of_desired_resources 	20
scalar Network800.node440 	query_homogenity_rate 	33.333333333333
scalar Network800.node440 	qrecord_time 	14006.406389868
scalar Network800.node440 	discovery_resolution_rate 	0
scalar Network800.node410 	rate_of_requesters 	1
scalar Network800.node410 	number_of_resources 	44000
scalar Network800.node410 	time_period 	3
scalar Network800.node410 	number_of_messages 	275
scalar Network800.node410 	discovery_latency 	5274
scalar Network800.node410 	number_of_desired_resources 	20
scalar Network800.node410 	query_homogenity_rate 	33.333333333333
scalar Network800.node410 	qrecord_time 	14045.955476199
scalar Network800.node410 	discovery_resolution_rate 	33.333333333333
scalar Network800.node710 	rate_of_requesters 	1
scalar Network800.node710 	number_of_resources 	44000
scalar Network800.node710 	time_period 	2
scalar Network800.node710 	number_of_messages 	136
scalar Network800.node710 	discovery_latency 	4824
scalar Network800.node710 	number_of_desired_resources 	20
scalar Network800.node710 	query_homogenity_rate 	33.333333333333
scalar Network800.node710 	qrecord_time 	14127.297364377
scalar Network800.node710 	discovery_resolution_rate 	33.333333333333
scalar Network800.node230 	rate_of_requesters 	1
scalar Network800.node230 	number_of_resources 	44000
scalar Network800.node230 	time_period 	4
scalar Network800.node230 	number_of_messages 	180
scalar Network800.node230 	discovery_latency 	4812
scalar Network800.node230 	number_of_desired_resources 	20
scalar Network800.node230 	query_homogenity_rate 	33.333333333333
scalar Network800.node230 	qrecord_time 	14147.351003609
scalar Network800.node230 	discovery_resolution_rate 	33.333333333333
scalar Network800.node470 	rate_of_requesters 	1
scalar Network800.node470 	number_of_resources 	44000
scalar Network800.node470 	time_period 	2
scalar Network800.node470 	number_of_messages 	2
scalar Network800.node470 	discovery_latency 	6762
scalar Network800.node470 	number_of_desired_resources 	20
scalar Network800.node470 	query_homogenity_rate 	33.333333333333
scalar Network800.node470 	qrecord_time 	14161.879091922
scalar Network800.node470 	discovery_resolution_rate 	0
scalar Network800.node370 	rate_of_requesters 	1
scalar Network800.node370 	number_of_resources 	44000
scalar Network800.node370 	time_period 	2
scalar Network800.node370 	number_of_messages 	155
scalar Network800.node370 	discovery_latency 	4812
scalar Network800.node370 	number_of_desired_resources 	20
scalar Network800.node370 	query_homogenity_rate 	33.333333333333
scalar Network800.node370 	qrecord_time 	14181.237169831
scalar Network800.node370 	discovery_resolution_rate 	33.333333333333
scalar Network800.node400 	rate_of_requesters 	1
scalar Network800.node400 	number_of_resources 	44000
scalar Network800.node400 	time_period 	2
scalar Network800.node400 	number_of_messages 	351
scalar Network800.node400 	discovery_latency 	4944
scalar Network800.node400 	number_of_desired_resources 	20
scalar Network800.node400 	query_homogenity_rate 	33.333333333333
scalar Network800.node400 	qrecord_time 	14231.674689463
scalar Network800.node400 	discovery_resolution_rate 	66.666666666667
scalar Network800.node110 	rate_of_requesters 	1
scalar Network800.node110 	number_of_resources 	44000
scalar Network800.node110 	time_period 	2
scalar Network800.node110 	number_of_messages 	2
scalar Network800.node110 	discovery_latency 	7038
scalar Network800.node110 	number_of_desired_resources 	20
scalar Network800.node110 	query_homogenity_rate 	33.333333333333
scalar Network800.node110 	qrecord_time 	14239.314752898
scalar Network800.node110 	discovery_resolution_rate 	0
scalar Network800.node0 	rate_of_requesters 	1
scalar Network800.node0 	number_of_resources 	44000
scalar Network800.node0 	time_period 	2
scalar Network800.node0 	number_of_messages 	2
scalar Network800.node0 	discovery_latency 	6786
scalar Network800.node0 	number_of_desired_resources 	20
scalar Network800.node0 	query_homogenity_rate 	33.333333333333
scalar Network800.node0 	qrecord_time 	14249.508897502
scalar Network800.node0 	discovery_resolution_rate 	0
scalar Network800.node220 	rate_of_requesters 	1
scalar Network800.node220 	number_of_resources 	44000
scalar Network800.node220 	time_period 	2
scalar Network800.node220 	number_of_messages 	2
scalar Network800.node220 	discovery_latency 	6594
scalar Network800.node220 	number_of_desired_resources 	20
scalar Network800.node220 	query_homogenity_rate 	33.333333333333
scalar Network800.node220 	qrecord_time 	14276.888992806
scalar Network800.node220 	discovery_resolution_rate 	0
scalar Network800.node720 	rate_of_requesters 	1
scalar Network800.node720 	number_of_resources 	44000
scalar Network800.node720 	time_period 	3
scalar Network800.node720 	number_of_messages 	197
scalar Network800.node720 	discovery_latency 	4812
scalar Network800.node720 	number_of_desired_resources 	20
scalar Network800.node720 	query_homogenity_rate 	33.333333333333
scalar Network800.node720 	qrecord_time 	14286.391073071
scalar Network800.node720 	discovery_resolution_rate 	33.333333333333
scalar Network800.node100 	rate_of_requesters 	1
scalar Network800.node100 	number_of_resources 	44000
scalar Network800.node100 	time_period 	5
scalar Network800.node100 	number_of_messages 	92
scalar Network800.node100 	discovery_latency 	4812
scalar Network800.node100 	number_of_desired_resources 	20
scalar Network800.node100 	query_homogenity_rate 	33.333333333333
scalar Network800.node100 	qrecord_time 	14329.253585907
scalar Network800.node100 	discovery_resolution_rate 	33.333333333333
scalar Network800.node510 	rate_of_requesters 	1
scalar Network800.node510 	number_of_resources 	44000
scalar Network800.node510 	time_period 	5
scalar Network800.node510 	number_of_messages 	238
scalar Network800.node510 	discovery_latency 	4884
scalar Network800.node510 	number_of_desired_resources 	20
scalar Network800.node510 	query_homogenity_rate 	33.333333333333
scalar Network800.node510 	qrecord_time 	14329.649025877
scalar Network800.node510 	discovery_resolution_rate 	33.333333333333
scalar Network800.node120 	rate_of_requesters 	1
scalar Network800.node120 	number_of_resources 	44000
scalar Network800.node120 	time_period 	3
scalar Network800.node120 	number_of_messages 	2
scalar Network800.node120 	discovery_latency 	6786
scalar Network800.node120 	number_of_desired_resources 	20
scalar Network800.node120 	query_homogenity_rate 	33.333333333333
scalar Network800.node120 	qrecord_time 	14347.96517741
scalar Network800.node120 	discovery_resolution_rate 	0
scalar Network800.node610 	rate_of_requesters 	1
scalar Network800.node610 	number_of_resources 	44000
scalar Network800.node610 	time_period 	2
scalar Network800.node610 	number_of_messages 	2
scalar Network800.node610 	discovery_latency 	6846
scalar Network800.node610 	number_of_desired_resources 	20
scalar Network800.node610 	query_homogenity_rate 	33.333333333333
scalar Network800.node610 	qrecord_time 	14362.559538308
scalar Network800.node610 	discovery_resolution_rate 	0
scalar Network800.node690 	rate_of_requesters 	1
scalar Network800.node690 	number_of_resources 	44000
scalar Network800.node690 	time_period 	6
scalar Network800.node690 	number_of_messages 	315
scalar Network800.node690 	discovery_latency 	6006
scalar Network800.node690 	number_of_desired_resources 	20
scalar Network800.node690 	query_homogenity_rate 	33.333333333333
scalar Network800.node690 	qrecord_time 	14475.761380454
scalar Network800.node690 	discovery_resolution_rate 	33.333333333333
scalar Network800.node790 	rate_of_requesters 	1
scalar Network800.node790 	number_of_resources 	44000
scalar Network800.node790 	time_period 	3
scalar Network800.node790 	number_of_messages 	2
scalar Network800.node790 	discovery_latency 	6882
scalar Network800.node790 	number_of_desired_resources 	20
scalar Network800.node790 	query_homogenity_rate 	33.333333333333
scalar Network800.node790 	qrecord_time 	14494.979037447
scalar Network800.node790 	discovery_resolution_rate 	0
scalar Network800.node690 	rate_of_requesters 	1
scalar Network800.node690 	number_of_resources 	44000
scalar Network800.node690 	time_period 	5
scalar Network800.node690 	number_of_messages 	2
scalar Network800.node690 	discovery_latency 	6678
scalar Network800.node690 	number_of_desired_resources 	20
[...]
scalar Network800.node630 	number_of_messages 	146
scalar Network800.node630 	discovery_latency 	4776
scalar Network800.node630 	number_of_desired_resources 	20
scalar Network800.node630 	query_homogenity_rate 	33.333333333333
scalar Network800.node630 	qrecord_time 	52853.482938307
scalar Network800.node630 	discovery_resolution_rate 	66.666666666667
scalar Network800.node580 	rate_of_requesters 	1
scalar Network800.node580 	number_of_resources 	44000
scalar Network800.node580 	time_period 	10
scalar Network800.node580 	number_of_messages 	40
scalar Network800.node580 	discovery_latency 	4512
scalar Network800.node580 	number_of_desired_resources 	20
scalar Network800.node580 	query_homogenity_rate 	33.333333333333
scalar Network800.node580 	qrecord_time 	53198.315049893
scalar Network800.node580 	discovery_resolution_rate 	66.666666666667
scalar Network800.node170 	rate_of_requesters 	1
scalar Network800.node170 	number_of_resources 	44000
scalar Network800.node170 	time_period 	9
scalar Network800.node170 	number_of_messages 	10
scalar Network800.node170 	discovery_latency 	4872
scalar Network800.node170 	number_of_desired_resources 	20
scalar Network800.node170 	query_homogenity_rate 	33.333333333333
scalar Network800.node170 	qrecord_time 	53705.235884305
scalar Network800.node170 	discovery_resolution_rate 	33.333333333333
scalar Network800.node50 	rate_of_requesters 	1
scalar Network800.node50 	number_of_resources 	44000
scalar Network800.node50 	time_period 	6
scalar Network800.node50 	number_of_messages 	131
scalar Network800.node50 	discovery_latency 	4764
scalar Network800.node50 	number_of_desired_resources 	20
scalar Network800.node50 	query_homogenity_rate 	33.333333333333
scalar Network800.node50 	qrecord_time 	53760.445986612
scalar Network800.node50 	discovery_resolution_rate 	66.666666666667
scalar Network800.node90 	rate_of_requesters 	1
scalar Network800.node90 	number_of_resources 	44000
scalar Network800.node90 	time_period 	9
scalar Network800.node90 	number_of_messages 	323
scalar Network800.node90 	discovery_latency 	4836
scalar Network800.node90 	number_of_desired_resources 	20
scalar Network800.node90 	query_homogenity_rate 	33.333333333333
scalar Network800.node90 	qrecord_time 	54110.117039968
scalar Network800.node90 	discovery_resolution_rate 	50
scalar Network800.node490 	rate_of_requesters 	1
scalar Network800.node490 	number_of_resources 	44000
scalar Network800.node490 	time_period 	9
scalar Network800.node490 	number_of_messages 	15
scalar Network800.node490 	discovery_latency 	4872
scalar Network800.node490 	number_of_desired_resources 	20
scalar Network800.node490 	query_homogenity_rate 	33.333333333333
scalar Network800.node490 	qrecord_time 	54465.624089736
scalar Network800.node490 	discovery_resolution_rate 	33.333333333333
scalar Network800.node670 	rate_of_requesters 	1
scalar Network800.node670 	number_of_resources 	44000
scalar Network800.node670 	time_period 	9
scalar Network800.node670 	number_of_messages 	179
scalar Network800.node670 	discovery_latency 	2412
scalar Network800.node670 	number_of_desired_resources 	20
scalar Network800.node670 	query_homogenity_rate 	33.333333333333
scalar Network800.node670 	qrecord_time 	54544.837633686
scalar Network800.node670 	discovery_resolution_rate 	100
scalar Network800.node670 	rate_of_requesters 	1
scalar Network800.node670 	number_of_resources 	44000
scalar Network800.node670 	time_period 	8
scalar Network800.node670 	number_of_messages 	41
scalar Network800.node670 	discovery_latency 	4632
scalar Network800.node670 	number_of_desired_resources 	20
scalar Network800.node670 	query_homogenity_rate 	33.333333333333
scalar Network800.node670 	qrecord_time 	54716.991521434
scalar Network800.node670 	discovery_resolution_rate 	66.666666666667
scalar Network800.node90 	rate_of_requesters 	1
scalar Network800.node90 	number_of_resources 	44000
scalar Network800.node90 	time_period 	10
scalar Network800.node90 	number_of_messages 	84
scalar Network800.node90 	discovery_latency 	1296
scalar Network800.node90 	number_of_desired_resources 	20
scalar Network800.node90 	query_homogenity_rate 	33.333333333333
scalar Network800.node90 	qrecord_time 	54846.393220894
scalar Network800.node90 	discovery_resolution_rate 	100
scalar Network800.node130 	rate_of_requesters 	1
scalar Network800.node130 	number_of_resources 	44000
scalar Network800.node130 	time_period 	10
scalar Network800.node130 	number_of_messages 	18
scalar Network800.node130 	discovery_latency 	4956
scalar Network800.node130 	number_of_desired_resources 	20
scalar Network800.node130 	query_homogenity_rate 	33.333333333333
scalar Network800.node130 	qrecord_time 	55597.260602732
scalar Network800.node130 	discovery_resolution_rate 	33.333333333333
scalar Network800.node70 	rate_of_requesters 	1
scalar Network800.node70 	number_of_resources 	44000
scalar Network800.node70 	time_period 	9
scalar Network800.node70 	number_of_messages 	175
scalar Network800.node70 	discovery_latency 	2208
scalar Network800.node70 	number_of_desired_resources 	20
scalar Network800.node70 	query_homogenity_rate 	33.333333333333
scalar Network800.node70 	qrecord_time 	55650.711945115
scalar Network800.node70 	discovery_resolution_rate 	100
scalar Network800.node680 	rate_of_requesters 	1
scalar Network800.node680 	number_of_resources 	44000
scalar Network800.node680 	time_period 	10
scalar Network800.node680 	number_of_messages 	181
scalar Network800.node680 	discovery_latency 	4692
scalar Network800.node680 	number_of_desired_resources 	20
scalar Network800.node680 	query_homogenity_rate 	33.333333333333
scalar Network800.node680 	qrecord_time 	55796.221699287
scalar Network800.node680 	discovery_resolution_rate 	66.666666666667
scalar Network800.node710 	rate_of_requesters 	1
scalar Network800.node710 	number_of_resources 	44000
scalar Network800.node710 	time_period 	9
scalar Network800.node710 	number_of_messages 	37
scalar Network800.node710 	discovery_latency 	4860
scalar Network800.node710 	number_of_desired_resources 	20
scalar Network800.node710 	query_homogenity_rate 	33.333333333333
scalar Network800.node710 	qrecord_time 	56098.973513575
scalar Network800.node710 	discovery_resolution_rate 	66.666666666667
scalar Network800.node630 	rate_of_requesters 	1
scalar Network800.node630 	number_of_resources 	44000
scalar Network800.node630 	time_period 	6
scalar Network800.node630 	number_of_messages 	204
scalar Network800.node630 	discovery_latency 	4716
scalar Network800.node630 	number_of_desired_resources 	20
scalar Network800.node630 	query_homogenity_rate 	33.333333333333
scalar Network800.node630 	qrecord_time 	56218.960617951
scalar Network800.node630 	discovery_resolution_rate 	66.666666666667
scalar Network800.node490 	rate_of_requesters 	1
scalar Network800.node490 	number_of_resources 	44000
scalar Network800.node490 	time_period 	10
scalar Network800.node490 	number_of_messages 	216
scalar Network800.node490 	discovery_latency 	4836
scalar Network800.node490 	number_of_desired_resources 	20
scalar Network800.node490 	query_homogenity_rate 	33.333333333333
scalar Network800.node490 	qrecord_time 	56687.676895369
scalar Network800.node490 	discovery_resolution_rate 	50
scalar Network800.node50 	rate_of_requesters 	1
scalar Network800.node50 	number_of_resources 	44000
scalar Network800.node50 	time_period 	8
scalar Network800.node50 	number_of_messages 	159
scalar Network800.node50 	discovery_latency 	4896
scalar Network800.node50 	number_of_desired_resources 	20
scalar Network800.node50 	query_homogenity_rate 	33.333333333333
scalar Network800.node50 	qrecord_time 	57225.484582408
scalar Network800.node50 	discovery_resolution_rate 	66.666666666667
scalar Network800.node430 	rate_of_requesters 	1
scalar Network800.node430 	number_of_resources 	44000
scalar Network800.node430 	time_period 	7
scalar Network800.node430 	number_of_messages 	49
scalar Network800.node430 	discovery_latency 	4656
scalar Network800.node430 	number_of_desired_resources 	20
scalar Network800.node430 	query_homogenity_rate 	33.333333333333
scalar Network800.node430 	qrecord_time 	57618.081856186
scalar Network800.node430 	discovery_resolution_rate 	66.666666666667
scalar Network800.node770 	rate_of_requesters 	1
scalar Network800.node770 	number_of_resources 	44000
scalar Network800.node770 	time_period 	9
scalar Network800.node770 	number_of_messages 	73
scalar Network800.node770 	discovery_latency 	4788
scalar Network800.node770 	number_of_desired_resources 	20
scalar Network800.node770 	query_homogenity_rate 	33.333333333333
scalar Network800.node770 	qrecord_time 	57676.057338315
scalar Network800.node770 	discovery_resolution_rate 	66.666666666667
scalar Network800.node710 	rate_of_requesters 	1
scalar Network800.node710 	number_of_resources 	44000
scalar Network800.node710 	time_period 	10
scalar Network800.node710 	number_of_messages 	122
scalar Network800.node710 	discovery_latency 	4824
scalar Network800.node710 	number_of_desired_resources 	20
scalar Network800.node710 	query_homogenity_rate 	33.333333333333
scalar Network800.node710 	qrecord_time 	58581.215078098
scalar Network800.node710 	discovery_resolution_rate 	66.666666666667
scalar Network800.node510 	rate_of_requesters 	1
scalar Network800.node510 	number_of_resources 	44000
scalar Network800.node510 	time_period 	10
scalar Network800.node510 	number_of_messages 	32
scalar Network800.node510 	discovery_latency 	408
scalar Network800.node510 	number_of_desired_resources 	20
scalar Network800.node510 	query_homogenity_rate 	33.333333333333
scalar Network800.node510 	qrecord_time 	58843.429551889
scalar Network800.node510 	discovery_resolution_rate 	100
scalar Network800.node170 	rate_of_requesters 	1
scalar Network800.node170 	number_of_resources 	44000
scalar Network800.node170 	time_period 	10
scalar Network800.node170 	number_of_messages 	63
scalar Network800.node170 	discovery_latency 	780
scalar Network800.node170 	number_of_desired_resources 	20
scalar Network800.node170 	query_homogenity_rate 	33.333333333333
scalar Network800.node170 	qrecord_time 	58888.904869619
scalar Network800.node170 	discovery_resolution_rate 	100
scalar Network800.node670 	rate_of_requesters 	1
scalar Network800.node670 	number_of_resources 	44000
scalar Network800.node670 	time_period 	10
scalar Network800.node670 	number_of_messages 	85
scalar Network800.node670 	discovery_latency 	4824
scalar Network800.node670 	number_of_desired_resources 	20
scalar Network800.node670 	query_homogenity_rate 	33.333333333333
scalar Network800.node670 	qrecord_time 	59111.220707306
scalar Network800.node670 	discovery_resolution_rate 	66.666666666667
scalar Network800.node260 	rate_of_requesters 	1
scalar Network800.node260 	number_of_resources 	44000
scalar Network800.node260 	time_period 	9
scalar Network800.node260 	number_of_messages 	99
scalar Network800.node260 	discovery_latency 	4716
scalar Network800.node260 	number_of_desired_resources 	20
scalar Network800.node260 	query_homogenity_rate 	33.333333333333
scalar Network800.node260 	qrecord_time 	59185.292105315
scalar Network800.node260 	discovery_resolution_rate 	66.666666666667
scalar Network800.node310 	rate_of_requesters 	1
scalar Network800.node310 	number_of_resources 	44000
scalar Network800.node310 	time_period 	10
scalar Network800.node310 	number_of_messages 	116
scalar Network800.node310 	discovery_latency 	4860
scalar Network800.node310 	number_of_desired_resources 	20
scalar Network800.node310 	query_homogenity_rate 	33.333333333333
scalar Network800.node310 	qrecord_time 	59279.27051718
scalar Network800.node310 	discovery_resolution_rate 	66.666666666667
scalar Network800.node730 	rate_of_requesters 	1
scalar Network800.node730 	number_of_resources 	44000
scalar Network800.node730 	time_period 	10
scalar Network800.node730 	number_of_messages 	112
scalar Network800.node730 	discovery_latency 	1944
scalar Network800.node730 	number_of_desired_resources 	20
scalar Network800.node730 	query_homogenity_rate 	33.333333333333
scalar Network800.node730 	qrecord_time 	59778.04973376
scalar Network800.node730 	discovery_resolution_rate 	100
scalar Network800.node260 	rate_of_requesters 	1
scalar Network800.node260 	number_of_resources 	44000
scalar Network800.node260 	time_period 	10
scalar Network800.node260 	number_of_messages 	152
scalar Network800.node260 	discovery_latency 	3300
scalar Network800.node260 	number_of_desired_resources 	20
scalar Network800.node260 	query_homogenity_rate 	33.333333333333
scalar Network800.node260 	qrecord_time 	60159.703897685
scalar Network800.node260 	discovery_resolution_rate 	100
scalar Network800.node530 	rate_of_requesters 	1
scalar Network800.node530 	number_of_resources 	44000
scalar Network800.node530 	time_period 	9
scalar Network800.node530 	number_of_messages 	119
scalar Network800.node530 	discovery_latency 	2100
scalar Network800.node530 	number_of_desired_resources 	20
scalar Network800.node530 	query_homogenity_rate 	33.333333333333
scalar Network800.node530 	qrecord_time 	60280.505420295
scalar Network800.node530 	discovery_resolution_rate 	100
scalar Network800.node430 	rate_of_requesters 	1
scalar Network800.node430 	number_of_resources 	44000
scalar Network800.node430 	time_period 	8
scalar Network800.node430 	number_of_messages 	69
scalar Network800.node430 	discovery_latency 	870
scalar Network800.node430 	number_of_desired_resources 	20
scalar Network800.node430 	query_homogenity_rate 	33.333333333333
scalar Network800.node430 	qrecord_time 	60376.849963747
scalar Network800.node430 	discovery_resolution_rate 	100
scalar Network800.node70 	rate_of_requesters 	1
scalar Network800.node70 	number_of_resources 	44000
scalar Network800.node70 	time_period 	10
scalar Network800.node70 	number_of_messages 	241
scalar Network800.node70 	discovery_latency 	3432
scalar Network800.node70 	number_of_desired_resources 	20
scalar Network800.node70 	query_homogenity_rate 	33.333333333333
scalar Network800.node70 	qrecord_time 	61267.682576248
scalar Network800.node70 	discovery_resolution_rate 	100
scalar Network800.node430 	rate_of_requesters 	1
scalar Network800.node430 	number_of_resources 	44000
scalar Network800.node430 	time_period 	9
scalar Network800.node430 	number_of_messages 	106
scalar Network800.node430 	discovery_latency 	1272
scalar Network800.node430 	number_of_desired_resources 	20
scalar Network800.node430 	query_homogenity_rate 	33.333333333333
scalar Network800.node430 	qrecord_time 	62248.313975364
scalar Network800.node430 	discovery_resolution_rate 	100
scalar Network800.node770 	rate_of_requesters 	1
scalar Network800.node770 	number_of_resources 	44000
scalar Network800.node770 	time_period 	10
scalar Network800.node770 	number_of_messages 	18
scalar Network800.node770 	discovery_latency 	4452
scalar Network800.node770 	number_of_desired_resources 	20
scalar Network800.node770 	query_homogenity_rate 	33.333333333333
scalar Network800.node770 	qrecord_time 	63548.06214455
scalar Network800.node770 	discovery_resolution_rate 	66.666666666667
scalar Network800.node630 	rate_of_requesters 	1
scalar Network800.node630 	number_of_resources 	44000
scalar Network800.node630 	time_period 	7
scalar Network800.node630 	number_of_messages 	97
scalar Network800.node630 	discovery_latency 	1176
scalar Network800.node630 	number_of_desired_resources 	20
scalar Network800.node630 	query_homogenity_rate 	33.333333333333
scalar Network800.node630 	qrecord_time 	65571.727317578
scalar Network800.node630 	discovery_resolution_rate 	100
scalar Network800.node430 	rate_of_requesters 	1
scalar Network800.node430 	number_of_resources 	44000
scalar Network800.node430 	time_period 	10
scalar Network800.node430 	number_of_messages 	74
scalar Network800.node430 	discovery_latency 	816
scalar Network800.node430 	number_of_desired_resources 	20
scalar Network800.node430 	query_homogenity_rate 	33.333333333333
scalar Network800.node430 	qrecord_time 	65795.412405142
scalar Network800.node430 	discovery_resolution_rate 	100
scalar Network800.node630 	rate_of_requesters 	1
scalar Network800.node630 	number_of_resources 	44000
scalar Network800.node630 	time_period 	8
scalar Network800.node630 	number_of_messages 	63
scalar Network800.node630 	discovery_latency 	684
scalar Network800.node630 	number_of_desired_resources 	20
scalar Network800.node630 	query_homogenity_rate 	33.333333333333
scalar Network800.node630 	qrecord_time 	67596.457303604
scalar Network800.node630 	discovery_resolution_rate 	100
scalar Network800.node530 	rate_of_requesters 	1
scalar Network800.node530 	number_of_resources 	44000
scalar Network800.node530 	time_period 	10
scalar Network800.node530 	number_of_messages 	111
scalar Network800.node530 	discovery_latency 	1908
scalar Network800.node530 	number_of_desired_resources 	20
scalar Network800.node530 	query_homogenity_rate 	33.333333333333
scalar Network800.node530 	qrecord_time 	68867.396631359
scalar Network800.node530 	discovery_resolution_rate 	100
scalar Network800.node50 	rate_of_requesters 	1
scalar Network800.node50 	number_of_resources 	44000
scalar Network800.node50 	time_period 	9
scalar Network800.node50 	number_of_messages 	105
scalar Network800.node50 	discovery_latency 	1308
scalar Network800.node50 	number_of_desired_resources 	20
scalar Network800.node50 	query_homogenity_rate 	33.333333333333
scalar Network800.node50 	qrecord_time 	69457.683444323
scalar Network800.node50 	discovery_resolution_rate 	100
scalar Network800.node630 	rate_of_requesters 	1
scalar Network800.node630 	number_of_resources 	44000
scalar Network800.node630 	time_period 	9
scalar Network800.node630 	number_of_messages 	64
scalar Network800.node630 	discovery_latency 	1164
scalar Network800.node630 	number_of_desired_resources 	20
scalar Network800.node630 	query_homogenity_rate 	33.333333333333
scalar Network800.node630 	qrecord_time 	70662.897931276
scalar Network800.node630 	discovery_resolution_rate 	100
scalar Network800.node250 	rate_of_requesters 	1
scalar Network800.node250 	number_of_resources 	44000
scalar Network800.node250 	time_period 	9
scalar Network800.node250 	number_of_messages 	66
scalar Network800.node250 	discovery_latency 	839.99999999999
scalar Network800.node250 	number_of_desired_resources 	20
scalar Network800.node250 	query_homogenity_rate 	33.333333333333
scalar Network800.node250 	qrecord_time 	70844.997880637
scalar Network800.node250 	discovery_resolution_rate 	100
scalar Network800.node50 	rate_of_requesters 	1
scalar Network800.node50 	number_of_resources 	44000
scalar Network800.node50 	time_period 	10
scalar Network800.node50 	number_of_messages 	80
scalar Network800.node50 	discovery_latency 	605.99999999999
scalar Network800.node50 	number_of_desired_resources 	20
scalar Network800.node50 	query_homogenity_rate 	33.333333333333
scalar Network800.node50 	qrecord_time 	72101.524002641
scalar Network800.node50 	discovery_resolution_rate 	100
scalar Network800.node630 	rate_of_requesters 	1
scalar Network800.node630 	number_of_resources 	44000
scalar Network800.node630 	time_period 	10
scalar Network800.node630 	number_of_messages 	55
scalar Network800.node630 	discovery_latency 	792
scalar Network800.node630 	number_of_desired_resources 	20
scalar Network800.node630 	query_homogenity_rate 	33.333333333333
scalar Network800.node630 	qrecord_time 	72478.826289422
scalar Network800.node630 	discovery_resolution_rate 	100
scalar Network800.node250 	rate_of_requesters 	1
scalar Network800.node250 	number_of_resources 	44000
scalar Network800.node250 	time_period 	10
scalar Network800.node250 	number_of_messages 	50
scalar Network800.node250 	discovery_latency 	408
scalar Network800.node250 	number_of_desired_resources 	20
scalar Network800.node250 	query_homogenity_rate 	33.333333333333
scalar Network800.node250 	qrecord_time 	79477.17597248
scalar Network800.node250 	discovery_resolution_rate 	100
