version 2
run net900-1-20150625-12:04:36-1364
attr as 1
attr configname net900
attr datetime 20150625-12:04:36
attr dnor 20
attr experiment net900
attr inifile omnetpp.ini
attr iterationvars "$rhdrq=3, $dnor=20, $as=1"
attr iterationvars2 "$rhdrq=3, $dnor=20, $as=1, $repetition=1"
attr measurement "$rhdrq=3, $dnor=20, $as=1"
attr network Network900
attr processid 1364
attr repetition 1
attr replication #1
attr resultdir results
attr rhdrq 3
attr runnumber 1
attr seedset 1

scalar . 	as 	1
scalar . 	dnor 	20
scalar . 	rhdrq 	3
scalar Network900.node890 	rate_of_requesters 	1
scalar Network900.node890 	number_of_resources 	49500
scalar Network900.node890 	time_period 	1
scalar Network900.node890 	number_of_messages 	35
scalar Network900.node890 	discovery_latency 	4512
scalar Network900.node890 	number_of_desired_resources 	20
scalar Network900.node890 	query_homogenity_rate 	33.333333333333
scalar Network900.node890 	qrecord_time 	9262
scalar Network900.node890 	discovery_resolution_rate 	66.666666666667
scalar Network900.node0 	rate_of_requesters 	1
scalar Network900.node0 	number_of_resources 	49500
scalar Network900.node0 	time_period 	1
scalar Network900.node0 	number_of_messages 	30
scalar Network900.node0 	discovery_latency 	4704
scalar Network900.node0 	number_of_desired_resources 	20
scalar Network900.node0 	query_homogenity_rate 	33.333333333333
scalar Network900.node0 	qrecord_time 	9394
scalar Network900.node0 	discovery_resolution_rate 	66.666666666667
scalar Network900.node630 	rate_of_requesters 	1
scalar Network900.node630 	number_of_resources 	49500
scalar Network900.node630 	time_period 	1
scalar Network900.node630 	number_of_messages 	29
scalar Network900.node630 	discovery_latency 	4740
scalar Network900.node630 	number_of_desired_resources 	20
scalar Network900.node630 	query_homogenity_rate 	33.333333333333
scalar Network900.node630 	qrecord_time 	9454
scalar Network900.node630 	discovery_resolution_rate 	66.666666666667
scalar Network900.node840 	rate_of_requesters 	1
scalar Network900.node840 	number_of_resources 	49500
scalar Network900.node840 	time_period 	1
scalar Network900.node840 	number_of_messages 	21
scalar Network900.node840 	discovery_latency 	4764
scalar Network900.node840 	number_of_desired_resources 	20
scalar Network900.node840 	query_homogenity_rate 	33.333333333333
scalar Network900.node840 	qrecord_time 	9472
scalar Network900.node840 	discovery_resolution_rate 	66.666666666667
scalar Network900.node420 	rate_of_requesters 	1
scalar Network900.node420 	number_of_resources 	49500
scalar Network900.node420 	time_period 	1
scalar Network900.node420 	number_of_messages 	12
scalar Network900.node420 	discovery_latency 	4812
scalar Network900.node420 	number_of_desired_resources 	20
scalar Network900.node420 	query_homogenity_rate 	33.333333333333
scalar Network900.node420 	qrecord_time 	9562
scalar Network900.node420 	discovery_resolution_rate 	66.666666666667
scalar Network900.node310 	rate_of_requesters 	1
scalar Network900.node310 	number_of_resources 	49500
scalar Network900.node310 	time_period 	1
scalar Network900.node310 	number_of_messages 	24
scalar Network900.node310 	discovery_latency 	4824
scalar Network900.node310 	number_of_desired_resources 	20
scalar Network900.node310 	query_homogenity_rate 	33.333333333333
scalar Network900.node310 	qrecord_time 	9574
scalar Network900.node310 	discovery_resolution_rate 	66.666666666667
scalar Network900.node20 	rate_of_requesters 	1
scalar Network900.node20 	number_of_resources 	49500
scalar Network900.node20 	time_period 	1
scalar Network900.node20 	number_of_messages 	26
scalar Network900.node20 	discovery_latency 	4980
scalar Network900.node20 	number_of_desired_resources 	20
scalar Network900.node20 	query_homogenity_rate 	33.333333333333
scalar Network900.node20 	qrecord_time 	9670
scalar Network900.node20 	discovery_resolution_rate 	66.666666666667
scalar Network900.node460 	rate_of_requesters 	1
scalar Network900.node460 	number_of_resources 	49500
scalar Network900.node460 	time_period 	1
scalar Network900.node460 	number_of_messages 	25
scalar Network900.node460 	discovery_latency 	4992
scalar Network900.node460 	number_of_desired_resources 	20
scalar Network900.node460 	query_homogenity_rate 	33.333333333333
scalar Network900.node460 	qrecord_time 	9676
scalar Network900.node460 	discovery_resolution_rate 	66.666666666667
scalar Network900.node830 	rate_of_requesters 	1
scalar Network900.node830 	number_of_resources 	49500
scalar Network900.node830 	time_period 	1
scalar Network900.node830 	number_of_messages 	19
scalar Network900.node830 	discovery_latency 	5004
scalar Network900.node830 	number_of_desired_resources 	20
scalar Network900.node830 	query_homogenity_rate 	33.333333333333
scalar Network900.node830 	qrecord_time 	9712
scalar Network900.node830 	discovery_resolution_rate 	66.666666666667
scalar Network900.node320 	rate_of_requesters 	1
scalar Network900.node320 	number_of_resources 	49500
scalar Network900.node320 	time_period 	1
scalar Network900.node320 	number_of_messages 	9
scalar Network900.node320 	discovery_latency 	5052
scalar Network900.node320 	number_of_desired_resources 	20
scalar Network900.node320 	query_homogenity_rate 	33.333333333333
scalar Network900.node320 	qrecord_time 	9766
scalar Network900.node320 	discovery_resolution_rate 	66.666666666667
scalar Network900.node480 	rate_of_requesters 	1
scalar Network900.node480 	number_of_resources 	49500
scalar Network900.node480 	time_period 	1
scalar Network900.node480 	number_of_messages 	9
scalar Network900.node480 	discovery_latency 	5148
scalar Network900.node480 	number_of_desired_resources 	20
scalar Network900.node480 	query_homogenity_rate 	33.333333333333
scalar Network900.node480 	qrecord_time 	9862
scalar Network900.node480 	discovery_resolution_rate 	66.666666666667
scalar Network900.node760 	rate_of_requesters 	1
scalar Network900.node760 	number_of_resources 	49500
scalar Network900.node760 	time_period 	1
scalar Network900.node760 	number_of_messages 	9
scalar Network900.node760 	discovery_latency 	5724
scalar Network900.node760 	number_of_desired_resources 	20
scalar Network900.node760 	query_homogenity_rate 	33.333333333333
scalar Network900.node760 	qrecord_time 	10474
scalar Network900.node760 	discovery_resolution_rate 	33.333333333333
scalar Network900.node470 	rate_of_requesters 	1
scalar Network900.node470 	number_of_resources 	49500
scalar Network900.node470 	time_period 	1
scalar Network900.node470 	number_of_messages 	5
scalar Network900.node470 	discovery_latency 	5844
scalar Network900.node470 	number_of_desired_resources 	20
scalar Network900.node470 	query_homogenity_rate 	33.333333333333
scalar Network900.node470 	qrecord_time 	10492
scalar Network900.node470 	discovery_resolution_rate 	33.333333333333
scalar Network900.node430 	rate_of_requesters 	1
scalar Network900.node430 	number_of_resources 	49500
scalar Network900.node430 	time_period 	1
scalar Network900.node430 	number_of_messages 	11
scalar Network900.node430 	discovery_latency 	5784
scalar Network900.node430 	number_of_desired_resources 	20
scalar Network900.node430 	query_homogenity_rate 	33.333333333333
scalar Network900.node430 	qrecord_time 	10528
scalar Network900.node430 	discovery_resolution_rate 	33.333333333333
scalar Network900.node410 	rate_of_requesters 	1
scalar Network900.node410 	number_of_resources 	49500
scalar Network900.node410 	time_period 	1
scalar Network900.node410 	number_of_messages 	5
scalar Network900.node410 	discovery_latency 	5796
scalar Network900.node410 	number_of_desired_resources 	20
scalar Network900.node410 	query_homogenity_rate 	33.333333333333
scalar Network900.node410 	qrecord_time 	10552
scalar Network900.node410 	discovery_resolution_rate 	33.333333333333
scalar Network900.node600 	rate_of_requesters 	1
scalar Network900.node600 	number_of_resources 	49500
scalar Network900.node600 	time_period 	1
scalar Network900.node600 	number_of_messages 	20
scalar Network900.node600 	discovery_latency 	5880
scalar Network900.node600 	number_of_desired_resources 	20
scalar Network900.node600 	query_homogenity_rate 	33.333333333333
scalar Network900.node600 	qrecord_time 	10552
scalar Network900.node600 	discovery_resolution_rate 	33.333333333333
scalar Network900.node770 	rate_of_requesters 	1
scalar Network900.node770 	number_of_resources 	49500
scalar Network900.node770 	time_period 	1
scalar Network900.node770 	number_of_messages 	11
scalar Network900.node770 	discovery_latency 	5892
scalar Network900.node770 	number_of_desired_resources 	20
scalar Network900.node770 	query_homogenity_rate 	33.333333333333
scalar Network900.node770 	qrecord_time 	10576
scalar Network900.node770 	discovery_resolution_rate 	33.333333333333
scalar Network900.node220 	rate_of_requesters 	1
scalar Network900.node220 	number_of_resources 	49500
scalar Network900.node220 	time_period 	1
scalar Network900.node220 	number_of_messages 	7
scalar Network900.node220 	discovery_latency 	5868
scalar Network900.node220 	number_of_desired_resources 	20
scalar Network900.node220 	query_homogenity_rate 	33.333333333333
scalar Network900.node220 	qrecord_time 	10582
scalar Network900.node220 	discovery_resolution_rate 	33.333333333333
scalar Network900.node580 	rate_of_requesters 	1
scalar Network900.node580 	number_of_resources 	49500
scalar Network900.node580 	time_period 	1
scalar Network900.node580 	number_of_messages 	16
scalar Network900.node580 	discovery_latency 	5880
scalar Network900.node580 	number_of_desired_resources 	20
scalar Network900.node580 	query_homogenity_rate 	33.333333333333
scalar Network900.node580 	qrecord_time 	10630
scalar Network900.node580 	discovery_resolution_rate 	33.333333333333
scalar Network900.node700 	rate_of_requesters 	1
scalar Network900.node700 	number_of_resources 	49500
scalar Network900.node700 	time_period 	1
scalar Network900.node700 	number_of_messages 	13
scalar Network900.node700 	discovery_latency 	5880
scalar Network900.node700 	number_of_desired_resources 	20
scalar Network900.node700 	query_homogenity_rate 	33.333333333333
scalar Network900.node700 	qrecord_time 	10630
scalar Network900.node700 	discovery_resolution_rate 	33.333333333333
scalar Network900.node140 	rate_of_requesters 	1
scalar Network900.node140 	number_of_resources 	49500
scalar Network900.node140 	time_period 	1
scalar Network900.node140 	number_of_messages 	12
scalar Network900.node140 	discovery_latency 	5880
scalar Network900.node140 	number_of_desired_resources 	20
scalar Network900.node140 	query_homogenity_rate 	33.333333333333
scalar Network900.node140 	qrecord_time 	10630
scalar Network900.node140 	discovery_resolution_rate 	33.333333333333
scalar Network900.node60 	rate_of_requesters 	1
scalar Network900.node60 	number_of_resources 	49500
scalar Network900.node60 	time_period 	1
scalar Network900.node60 	number_of_messages 	18
scalar Network900.node60 	discovery_latency 	5868
scalar Network900.node60 	number_of_desired_resources 	20
scalar Network900.node60 	query_homogenity_rate 	33.333333333333
scalar Network900.node60 	qrecord_time 	10660
scalar Network900.node60 	discovery_resolution_rate 	66.666666666667
scalar Network900.node170 	rate_of_requesters 	1
scalar Network900.node170 	number_of_resources 	49500
scalar Network900.node170 	time_period 	1
scalar Network900.node170 	number_of_messages 	12
scalar Network900.node170 	discovery_latency 	5964
scalar Network900.node170 	number_of_desired_resources 	20
scalar Network900.node170 	query_homogenity_rate 	33.333333333333
scalar Network900.node170 	qrecord_time 	10678
scalar Network900.node170 	discovery_resolution_rate 	33.333333333333
scalar Network900.node820 	rate_of_requesters 	1
scalar Network900.node820 	number_of_resources 	49500
scalar Network900.node820 	time_period 	1
scalar Network900.node820 	number_of_messages 	6
scalar Network900.node820 	discovery_latency 	5940
scalar Network900.node820 	number_of_desired_resources 	20
scalar Network900.node820 	query_homogenity_rate 	33.333333333333
scalar Network900.node820 	qrecord_time 	10714
scalar Network900.node820 	discovery_resolution_rate 	33.333333333333
scalar Network900.node510 	rate_of_requesters 	1
scalar Network900.node510 	number_of_resources 	49500
scalar Network900.node510 	time_period 	1
scalar Network900.node510 	number_of_messages 	5
scalar Network900.node510 	discovery_latency 	5964
scalar Network900.node510 	number_of_desired_resources 	20
scalar Network900.node510 	query_homogenity_rate 	33.333333333333
scalar Network900.node510 	qrecord_time 	10720
scalar Network900.node510 	discovery_resolution_rate 	33.333333333333
scalar Network900.node500 	rate_of_requesters 	1
scalar Network900.node500 	number_of_resources 	49500
scalar Network900.node500 	time_period 	1
scalar Network900.node500 	number_of_messages 	7
scalar Network900.node500 	discovery_latency 	6036
scalar Network900.node500 	number_of_desired_resources 	20
scalar Network900.node500 	query_homogenity_rate 	33.333333333333
scalar Network900.node500 	qrecord_time 	10726
scalar Network900.node500 	discovery_resolution_rate 	33.333333333333
scalar Network900.node70 	rate_of_requesters 	1
scalar Network900.node70 	number_of_resources 	49500
scalar Network900.node70 	time_period 	1
scalar Network900.node70 	number_of_messages 	5
scalar Network900.node70 	discovery_latency 	5988
scalar Network900.node70 	number_of_desired_resources 	20
scalar Network900.node70 	query_homogenity_rate 	33.333333333333
scalar Network900.node70 	qrecord_time 	10744
scalar Network900.node70 	discovery_resolution_rate 	33.333333333333
scalar Network900.node230 	rate_of_requesters 	1
scalar Network900.node230 	number_of_resources 	49500
scalar Network900.node230 	time_period 	1
scalar Network900.node230 	number_of_messages 	5
scalar Network900.node230 	discovery_latency 	6000
scalar Network900.node230 	number_of_desired_resources 	20
scalar Network900.node230 	query_homogenity_rate 	33.333333333333
scalar Network900.node230 	qrecord_time 	10756
scalar Network900.node230 	discovery_resolution_rate 	33.333333333333
scalar Network900.node720 	rate_of_requesters 	1
scalar Network900.node720 	number_of_resources 	49500
scalar Network900.node720 	time_period 	1
scalar Network900.node720 	number_of_messages 	295
scalar Network900.node720 	discovery_latency 	6138
scalar Network900.node720 	number_of_desired_resources 	20
scalar Network900.node720 	query_homogenity_rate 	33.333333333333
scalar Network900.node720 	qrecord_time 	10804
scalar Network900.node720 	discovery_resolution_rate 	16.666666666667
scalar Network900.node880 	rate_of_requesters 	1
scalar Network900.node880 	number_of_resources 	49500
scalar Network900.node880 	time_period 	1
scalar Network900.node880 	number_of_messages 	5
scalar Network900.node880 	discovery_latency 	6036
scalar Network900.node880 	number_of_desired_resources 	20
scalar Network900.node880 	query_homogenity_rate 	33.333333333333
scalar Network900.node880 	qrecord_time 	10810
scalar Network900.node880 	discovery_resolution_rate 	33.333333333333
scalar Network900.node40 	rate_of_requesters 	1
scalar Network900.node40 	number_of_resources 	49500
scalar Network900.node40 	time_period 	1
scalar Network900.node40 	number_of_messages 	19
scalar Network900.node40 	discovery_latency 	6036
scalar Network900.node40 	number_of_desired_resources 	20
scalar Network900.node40 	query_homogenity_rate 	33.333333333333
scalar Network900.node40 	qrecord_time 	10810
scalar Network900.node40 	discovery_resolution_rate 	33.333333333333
scalar Network900.node520 	rate_of_requesters 	1
scalar Network900.node520 	number_of_resources 	49500
scalar Network900.node520 	time_period 	1
scalar Network900.node520 	number_of_messages 	19
scalar Network900.node520 	discovery_latency 	6084
scalar Network900.node520 	number_of_desired_resources 	20
scalar Network900.node520 	query_homogenity_rate 	33.333333333333
scalar Network900.node520 	qrecord_time 	10816
scalar Network900.node520 	discovery_resolution_rate 	33.333333333333
scalar Network900.node180 	rate_of_requesters 	1
scalar Network900.node180 	number_of_resources 	49500
scalar Network900.node180 	time_period 	1
scalar Network900.node180 	number_of_messages 	2
scalar Network900.node180 	discovery_latency 	6090
scalar Network900.node180 	number_of_desired_resources 	20
scalar Network900.node180 	query_homogenity_rate 	33.333333333333
scalar Network900.node180 	qrecord_time 	10822
scalar Network900.node180 	discovery_resolution_rate 	0
scalar Network900.node670 	rate_of_requesters 	1
scalar Network900.node670 	number_of_resources 	49500
scalar Network900.node670 	time_period 	1
scalar Network900.node670 	number_of_messages 	0
scalar Network900.node670 	discovery_latency 	6198
scalar Network900.node670 	number_of_desired_resources 	20
scalar Network900.node670 	query_homogenity_rate 	33.333333333333
scalar Network900.node670 	qrecord_time 	10846
scalar Network900.node670 	discovery_resolution_rate 	0
scalar Network900.node560 	rate_of_requesters 	1
scalar Network900.node560 	number_of_resources 	49500
scalar Network900.node560 	time_period 	1
scalar Network900.node560 	number_of_messages 	2
scalar Network900.node560 	discovery_latency 	6126
scalar Network900.node560 	number_of_desired_resources 	20
scalar Network900.node560 	query_homogenity_rate 	33.333333333333
scalar Network900.node560 	qrecord_time 	10852
scalar Network900.node560 	discovery_resolution_rate 	0
scalar Network900.node860 	rate_of_requesters 	1
scalar Network900.node860 	number_of_resources 	49500
scalar Network900.node860 	time_period 	1
scalar Network900.node860 	number_of_messages 	5
scalar Network900.node860 	discovery_latency 	6120
scalar Network900.node860 	number_of_desired_resources 	20
scalar Network900.node860 	query_homogenity_rate 	33.333333333333
scalar Network900.node860 	qrecord_time 	10876
scalar Network900.node860 	discovery_resolution_rate 	33.333333333333
scalar Network900.node530 	rate_of_requesters 	1
scalar Network900.node530 	number_of_resources 	49500
scalar Network900.node530 	time_period 	1
scalar Network900.node530 	number_of_messages 	17
scalar Network900.node530 	discovery_latency 	6072
scalar Network900.node530 	number_of_desired_resources 	20
scalar Network900.node530 	query_homogenity_rate 	33.333333333333
scalar Network900.node530 	qrecord_time 	10876
scalar Network900.node530 	discovery_resolution_rate 	33.333333333333
scalar Network900.node90 	rate_of_requesters 	1
scalar Network900.node90 	number_of_resources 	49500
scalar Network900.node90 	time_period 	1
scalar Network900.node90 	number_of_messages 	2
scalar Network900.node90 	discovery_latency 	6138
scalar Network900.node90 	number_of_desired_resources 	20
scalar Network900.node90 	query_homogenity_rate 	33.333333333333
scalar Network900.node90 	qrecord_time 	10906
scalar Network900.node90 	discovery_resolution_rate 	0
scalar Network900.node710 	rate_of_requesters 	1
scalar Network900.node710 	number_of_resources 	49500
scalar Network900.node710 	time_period 	1
scalar Network900.node710 	number_of_messages 	0
scalar Network900.node710 	discovery_latency 	6258
scalar Network900.node710 	number_of_desired_resources 	20
scalar Network900.node710 	query_homogenity_rate 	33.333333333333
scalar Network900.node710 	qrecord_time 	10906
scalar Network900.node710 	discovery_resolution_rate 	0
scalar Network900.node570 	rate_of_requesters 	1
scalar Network900.node570 	number_of_resources 	49500
scalar Network900.node570 	time_period 	1
scalar Network900.node570 	number_of_messages 	20
scalar Network900.node570 	discovery_latency 	6120
scalar Network900.node570 	number_of_desired_resources 	20
scalar Network900.node570 	query_homogenity_rate 	33.333333333333
scalar Network900.node570 	qrecord_time 	10912
scalar Network900.node570 	discovery_resolution_rate 	66.666666666667
scalar Network900.node380 	rate_of_requesters 	1
scalar Network900.node380 	number_of_resources 	49500
scalar Network900.node380 	time_period 	1
scalar Network900.node380 	number_of_messages 	6
scalar Network900.node380 	discovery_latency 	6156
scalar Network900.node380 	number_of_desired_resources 	20
scalar Network900.node380 	query_homogenity_rate 	33.333333333333
scalar Network900.node380 	qrecord_time 	10912
scalar Network900.node380 	discovery_resolution_rate 	33.333333333333
scalar Network900.node690 	rate_of_requesters 	1
scalar Network900.node690 	number_of_resources 	49500
scalar Network900.node690 	time_period 	1
scalar Network900.node690 	number_of_messages 	20
scalar Network900.node690 	discovery_latency 	6204
scalar Network900.node690 	number_of_desired_resources 	20
scalar Network900.node690 	query_homogenity_rate 	33.333333333333
scalar Network900.node690 	qrecord_time 	10936
scalar Network900.node690 	discovery_resolution_rate 	33.333333333333
scalar Network900.node120 	rate_of_requesters 	1
scalar Network900.node120 	number_of_resources 	49500
scalar Network900.node120 	time_period 	1
scalar Network900.node120 	number_of_messages 	2
scalar Network900.node120 	discovery_latency 	6270
scalar Network900.node120 	number_of_desired_resources 	20
scalar Network900.node120 	query_homogenity_rate 	33.333333333333
scalar Network900.node120 	qrecord_time 	10936
scalar Network900.node120 	discovery_resolution_rate 	0
scalar Network900.node650 	rate_of_requesters 	1
scalar Network900.node650 	number_of_resources 	49500
scalar Network900.node650 	time_period 	1
scalar Network900.node650 	number_of_messages 	10
scalar Network900.node650 	discovery_latency 	6294
scalar Network900.node650 	number_of_desired_resources 	20
scalar Network900.node650 	query_homogenity_rate 	33.333333333333
scalar Network900.node650 	qrecord_time 	10936
scalar Network900.node650 	discovery_resolution_rate 	33.333333333333
scalar Network900.node620 	rate_of_requesters 	1
scalar Network900.node620 	number_of_resources 	49500
scalar Network900.node620 	time_period 	1
scalar Network900.node620 	number_of_messages 	2
scalar Network900.node620 	discovery_latency 	6246
scalar Network900.node620 	number_of_desired_resources 	20
scalar Network900.node620 	query_homogenity_rate 	33.333333333333
scalar Network900.node620 	qrecord_time 	10936
scalar Network900.node620 	discovery_resolution_rate 	0
scalar Network900.node50 	rate_of_requesters 	1
scalar Network900.node50 	number_of_resources 	49500
scalar Network900.node50 	time_period 	1
scalar Network900.node50 	number_of_messages 	2
scalar Network900.node50 	discovery_latency 	6270
scalar Network900.node50 	number_of_desired_resources 	20
scalar Network900.node50 	query_homogenity_rate 	33.333333333333
scalar Network900.node50 	qrecord_time 	10936
scalar Network900.node50 	discovery_resolution_rate 	0
scalar Network900.node790 	rate_of_requesters 	1
scalar Network900.node790 	number_of_resources 	49500
scalar Network900.node790 	time_period 	2
scalar Network900.node790 	number_of_messages 	0
scalar Network900.node790 	discovery_latency 	6234
scalar Network900.node790 	number_of_desired_resources 	20
scalar Network900.node790 	query_homogenity_rate 	33.333333333333
scalar Network900.node790 	qrecord_time 	10946.007191332
scalar Network900.node790 	discovery_resolution_rate 	0
scalar Network900.node850 	rate_of_requesters 	1
scalar Network900.node850 	number_of_resources 	49500
scalar Network900.node850 	time_period 	1
scalar Network900.node850 	number_of_messages 	269
scalar Network900.node850 	discovery_latency 	6258
scalar Network900.node850 	number_of_desired_resources 	20
scalar Network900.node850 	query_homogenity_rate 	33.333333333333
scalar Network900.node850 	qrecord_time 	10948
scalar Network900.node850 	discovery_resolution_rate 	16.666666666667
scalar Network900.node400 	rate_of_requesters 	1
scalar Network900.node400 	number_of_resources 	49500
scalar Network900.node400 	time_period 	1
scalar Network900.node400 	number_of_messages 	2
scalar Network900.node400 	discovery_latency 	6150
scalar Network900.node400 	number_of_desired_resources 	20
scalar Network900.node400 	query_homogenity_rate 	33.333333333333
scalar Network900.node400 	qrecord_time 	10972
scalar Network900.node400 	discovery_resolution_rate 	0
scalar Network900.node270 	rate_of_requesters 	1
scalar Network900.node270 	number_of_resources 	49500
scalar Network900.node270 	time_period 	1
scalar Network900.node270 	number_of_messages 	18
scalar Network900.node270 	discovery_latency 	6246
scalar Network900.node270 	number_of_desired_resources 	20
scalar Network900.node270 	query_homogenity_rate 	33.333333333333
scalar Network900.node270 	qrecord_time 	10978
scalar Network900.node270 	discovery_resolution_rate 	33.333333333333
scalar Network900.node80 	rate_of_requesters 	1
scalar Network900.node80 	number_of_resources 	49500
scalar Network900.node80 	time_period 	1
scalar Network900.node80 	number_of_messages 	202
scalar Network900.node80 	discovery_latency 	6318
scalar Network900.node80 	number_of_desired_resources 	20
scalar Network900.node80 	query_homogenity_rate 	33.333333333333
scalar Network900.node80 	qrecord_time 	10984
scalar Network900.node80 	discovery_resolution_rate 	16.666666666667
scalar Network900.node610 	rate_of_requesters 	1
scalar Network900.node610 	number_of_resources 	49500
scalar Network900.node610 	time_period 	1
scalar Network900.node610 	number_of_messages 	2
scalar Network900.node610 	discovery_latency 	6270
scalar Network900.node610 	number_of_desired_resources 	20
scalar Network900.node610 	query_homogenity_rate 	33.333333333333
scalar Network900.node610 	qrecord_time 	11002
scalar Network900.node610 	discovery_resolution_rate 	0
scalar Network900.node190 	rate_of_requesters 	1
scalar Network900.node190 	number_of_resources 	49500
scalar Network900.node190 	time_period 	1
scalar Network900.node190 	number_of_messages 	2
scalar Network900.node190 	discovery_latency 	6162
scalar Network900.node190 	number_of_desired_resources 	20
scalar Network900.node190 	query_homogenity_rate 	33.333333333333
scalar Network900.node190 	qrecord_time 	11020
scalar Network900.node190 	discovery_resolution_rate 	0
scalar Network900.node210 	rate_of_requesters 	1
scalar Network900.node210 	number_of_resources 	49500
scalar Network900.node210 	time_period 	1
scalar Network900.node210 	number_of_messages 	2
scalar Network900.node210 	discovery_latency 	6294
scalar Network900.node210 	number_of_desired_resources 	20
scalar Network900.node210 	query_homogenity_rate 	33.333333333333
scalar Network900.node210 	qrecord_time 	11026
scalar Network900.node210 	discovery_resolution_rate 	0
scalar Network900.node110 	rate_of_requesters 	1
scalar Network900.node110 	number_of_resources 	49500
scalar Network900.node110 	time_period 	1
scalar Network900.node110 	number_of_messages 	267
scalar Network900.node110 	discovery_latency 	6354
scalar Network900.node110 	number_of_desired_resources 	20
scalar Network900.node110 	query_homogenity_rate 	33.333333333333
scalar Network900.node110 	qrecord_time 	11026
scalar Network900.node110 	discovery_resolution_rate 	16.666666666667
scalar Network900.node740 	rate_of_requesters 	1
scalar Network900.node740 	number_of_resources 	49500
scalar Network900.node740 	time_period 	1
scalar Network900.node740 	number_of_messages 	0
scalar Network900.node740 	discovery_latency 	6282
scalar Network900.node740 	number_of_desired_resources 	20
scalar Network900.node740 	query_homogenity_rate 	33.333333333333
scalar Network900.node740 	qrecord_time 	11026
scalar Network900.node740 	discovery_resolution_rate 	0
scalar Network900.node720 	rate_of_requesters 	1
scalar Network900.node720 	number_of_resources 	49500
scalar Network900.node720 	time_period 	2
scalar Network900.node720 	number_of_messages 	14
scalar Network900.node720 	discovery_latency 	6330
scalar Network900.node720 	number_of_desired_resources 	20
scalar Network900.node720 	query_homogenity_rate 	33.333333333333
scalar Network900.node720 	qrecord_time 	11029.776400241
scalar Network900.node720 	discovery_resolution_rate 	33.333333333333
scalar Network900.node250 	rate_of_requesters 	1
scalar Network900.node250 	number_of_resources 	49500
scalar Network900.node250 	time_period 	1
scalar Network900.node250 	number_of_messages 	2
scalar Network900.node250 	discovery_latency 	6318
scalar Network900.node250 	number_of_desired_resources 	20
scalar Network900.node250 	query_homogenity_rate 	33.333333333333
scalar Network900.node250 	qrecord_time 	11032
scalar Network900.node250 	discovery_resolution_rate 	0
scalar Network900.node790 	rate_of_requesters 	1
scalar Network900.node790 	number_of_resources 	49500
scalar Network900.node790 	time_period 	1
scalar Network900.node790 	number_of_messages 	308
scalar Network900.node790 	discovery_latency 	6354
scalar Network900.node790 	number_of_desired_resources 	20
scalar Network900.node790 	query_homogenity_rate 	33.333333333333
scalar Network900.node790 	qrecord_time 	11050
scalar Network900.node790 	discovery_resolution_rate 	50
scalar Network900.node280 	rate_of_requesters 	1
scalar Network900.node280 	number_of_resources 	49500
scalar Network900.node280 	time_period 	1
scalar Network900.node280 	number_of_messages 	2
scalar Network900.node280 	discovery_latency 	6282
scalar Network900.node280 	number_of_desired_resources 	20
scalar Network900.node280 	query_homogenity_rate 	33.333333333333
scalar Network900.node280 	qrecord_time 	11080
scalar Network900.node280 	discovery_resolution_rate 	0
scalar Network900.node340 	rate_of_requesters 	1
scalar Network900.node340 	number_of_resources 	49500
scalar Network900.node340 	time_period 	1
scalar Network900.node340 	number_of_messages 	2
scalar Network900.node340 	discovery_latency 	6330
scalar Network900.node340 	number_of_desired_resources 	20
scalar Network900.node340 	query_homogenity_rate 	33.333333333333
scalar Network900.node340 	qrecord_time 	11086
scalar Network900.node340 	discovery_resolution_rate 	0
scalar Network900.node30 	rate_of_requesters 	1
scalar Network900.node30 	number_of_resources 	49500
scalar Network900.node30 	time_period 	1
scalar Network900.node30 	number_of_messages 	2
scalar Network900.node30 	discovery_latency 	6246
scalar Network900.node30 	number_of_desired_resources 	20
scalar Network900.node30 	query_homogenity_rate 	33.333333333333
scalar Network900.node30 	qrecord_time 	11086
scalar Network900.node30 	discovery_resolution_rate 	0
scalar Network900.node130 	rate_of_requesters 	1
scalar Network900.node130 	number_of_resources 	49500
scalar Network900.node130 	time_period 	1
scalar Network900.node130 	number_of_messages 	0
scalar Network900.node130 	discovery_latency 	6318
scalar Network900.node130 	number_of_desired_resources 	20
scalar Network900.node130 	query_homogenity_rate 	33.333333333333
scalar Network900.node130 	qrecord_time 	11086
scalar Network900.node130 	discovery_resolution_rate 	0
scalar Network900.node360 	rate_of_requesters 	1
scalar Network900.node360 	number_of_resources 	49500
scalar Network900.node360 	time_period 	1
scalar Network900.node360 	number_of_messages 	2
scalar Network900.node360 	discovery_latency 	6378
scalar Network900.node360 	number_of_desired_resources 	20
scalar Network900.node360 	query_homogenity_rate 	33.333333333333
scalar Network900.node360 	qrecord_time 	11092
scalar Network900.node360 	discovery_resolution_rate 	0
scalar Network900.node680 	rate_of_requesters 	1
scalar Network900.node680 	number_of_resources 	49500
scalar Network900.node680 	time_period 	1
scalar Network900.node680 	number_of_messages 	2
scalar Network900.node680 	discovery_latency 	6378
scalar Network900.node680 	number_of_desired_resources 	20
scalar Network900.node680 	query_homogenity_rate 	33.333333333333
scalar Network900.node680 	qrecord_time 	11092
scalar Network900.node680 	discovery_resolution_rate 	0
scalar Network900.node300 	rate_of_requesters 	1
scalar Network900.node300 	number_of_resources 	49500
scalar Network900.node300 	time_period 	1
scalar Network900.node300 	number_of_messages 	17
scalar Network900.node300 	discovery_latency 	6378
scalar Network900.node300 	number_of_desired_resources 	20
scalar Network900.node300 	query_homogenity_rate 	33.333333333333
scalar Network900.node300 	qrecord_time 	11092
scalar Network900.node300 	discovery_resolution_rate 	33.333333333333
scalar Network900.node490 	rate_of_requesters 	1
scalar Network900.node490 	number_of_resources 	49500
scalar Network900.node490 	time_period 	1
scalar Network900.node490 	number_of_messages 	2
scalar Network900.node490 	discovery_latency 	6246
scalar Network900.node490 	number_of_desired_resources 	20
scalar Network900.node490 	query_homogenity_rate 	33.333333333333
scalar Network900.node490 	qrecord_time 	11104
scalar Network900.node490 	discovery_resolution_rate 	0
scalar Network900.node480 	rate_of_requesters 	1
scalar Network900.node480 	number_of_resources 	49500
scalar Network900.node480 	time_period 	2
scalar Network900.node480 	number_of_messages 	5
scalar Network900.node480 	discovery_latency 	6390
scalar Network900.node480 	number_of_desired_resources 	20
scalar Network900.node480 	query_homogenity_rate 	33.333333333333
scalar Network900.node480 	qrecord_time 	11104.544862677
scalar Network900.node480 	discovery_resolution_rate 	33.333333333333
scalar Network900.node160 	rate_of_requesters 	1
scalar Network900.node160 	number_of_resources 	49500
scalar Network900.node160 	time_period 	2
scalar Network900.node160 	number_of_messages 	2
scalar Network900.node160 	discovery_latency 	6210
scalar Network900.node160 	number_of_desired_resources 	20
scalar Network900.node160 	query_homogenity_rate 	33.333333333333
scalar Network900.node160 	qrecord_time 	11105.162181174
scalar Network900.node160 	discovery_resolution_rate 	0
scalar Network900.node300 	rate_of_requesters 	1
scalar Network900.node300 	number_of_resources 	49500
scalar Network900.node300 	time_period 	2
scalar Network900.node300 	number_of_messages 	2
scalar Network900.node300 	discovery_latency 	6066
scalar Network900.node300 	number_of_desired_resources 	20
scalar Network900.node300 	query_homogenity_rate 	33.333333333333
scalar Network900.node300 	qrecord_time 	11117.38861421
scalar Network900.node300 	discovery_resolution_rate 	0
scalar Network900.node10 	rate_of_requesters 	1
scalar Network900.node10 	number_of_resources 	49500
scalar Network900.node10 	time_period 	1
scalar Network900.node10 	number_of_messages 	2
scalar Network900.node10 	discovery_latency 	6246
scalar Network900.node10 	number_of_desired_resources 	20
scalar Network900.node10 	query_homogenity_rate 	33.333333333333
scalar Network900.node10 	qrecord_time 	11122
scalar Network900.node10 	discovery_resolution_rate 	0
scalar Network900.node810 	rate_of_requesters 	1
scalar Network900.node810 	number_of_resources 	49500
scalar Network900.node810 	time_period 	1
scalar Network900.node810 	number_of_messages 	0
scalar Network900.node810 	discovery_latency 	6330
scalar Network900.node810 	number_of_desired_resources 	20
scalar Network900.node810 	query_homogenity_rate 	33.333333333333
scalar Network900.node810 	qrecord_time 	11122
scalar Network900.node810 	discovery_resolution_rate 	0
scalar Network900.node200 	rate_of_requesters 	1
scalar Network900.node200 	number_of_resources 	49500
scalar Network900.node200 	time_period 	1
scalar Network900.node200 	number_of_messages 	2
scalar Network900.node200 	discovery_latency 	6414
scalar Network900.node200 	number_of_desired_resources 	20
scalar Network900.node200 	query_homogenity_rate 	33.333333333333
scalar Network900.node200 	qrecord_time 	11128
scalar Network900.node200 	discovery_resolution_rate 	0
scalar Network900.node150 	rate_of_requesters 	1
scalar Network900.node150 	number_of_resources 	49500
scalar Network900.node150 	time_period 	1
scalar Network900.node150 	number_of_messages 	2
scalar Network900.node150 	discovery_latency 	6426
scalar Network900.node150 	number_of_desired_resources 	20
scalar Network900.node150 	query_homogenity_rate 	33.333333333333
scalar Network900.node150 	qrecord_time 	11140
scalar Network900.node150 	discovery_resolution_rate 	0
scalar Network900.node290 	rate_of_requesters 	1
scalar Network900.node290 	number_of_resources 	49500
scalar Network900.node290 	time_period 	1
scalar Network900.node290 	number_of_messages 	6
scalar Network900.node290 	discovery_latency 	6438
scalar Network900.node290 	number_of_desired_resources 	20
scalar Network900.node290 	query_homogenity_rate 	33.333333333333
scalar Network900.node290 	qrecord_time 	11152
scalar Network900.node290 	discovery_resolution_rate 	33.333333333333
scalar Network900.node450 	rate_of_requesters 	1
scalar Network900.node450 	number_of_resources 	49500
scalar Network900.node450 	time_period 	1
scalar Network900.node450 	number_of_messages 	2
scalar Network900.node450 	discovery_latency 	6426
scalar Network900.node450 	number_of_desired_resources 	20
scalar Network900.node450 	query_homogenity_rate 	33.333333333333
scalar Network900.node450 	qrecord_time 	11152
scalar Network900.node450 	discovery_resolution_rate 	0
scalar Network900.node870 	rate_of_requesters 	1
scalar Network900.node870 	number_of_resources 	49500
scalar Network900.node870 	time_period 	1
scalar Network900.node870 	number_of_messages 	269
scalar Network900.node870 	discovery_latency 	6450
scalar Network900.node870 	number_of_desired_resources 	20
scalar Network900.node870 	query_homogenity_rate 	33.333333333333
scalar Network900.node870 	qrecord_time 	11158
scalar Network900.node870 	discovery_resolution_rate 	16.666666666667
scalar Network900.node540 	rate_of_requesters 	1
scalar Network900.node540 	number_of_resources 	49500
scalar Network900.node540 	time_period 	1
scalar Network900.node540 	number_of_messages 	2
scalar Network900.node540 	discovery_latency 	6450
scalar Network900.node540 	number_of_desired_resources 	20
scalar Network900.node540 	query_homogenity_rate 	33.333333333333
scalar Network900.node540 	qrecord_time 	11164
scalar Network900.node540 	discovery_resolution_rate 	0
scalar Network900.node390 	rate_of_requesters 	1
scalar Network900.node390 	number_of_resources 	49500
scalar Network900.node390 	time_period 	1
scalar Network900.node390 	number_of_messages 	2
scalar Network900.node390 	discovery_latency 	6450
scalar Network900.node390 	number_of_desired_resources 	20
scalar Network900.node390 	query_homogenity_rate 	33.333333333333
scalar Network900.node390 	qrecord_time 	11164
scalar Network900.node390 	discovery_resolution_rate 	0
scalar Network900.node100 	rate_of_requesters 	1
scalar Network900.node100 	number_of_resources 	49500
scalar Network900.node100 	time_period 	1
scalar Network900.node100 	number_of_messages 	19
scalar Network900.node100 	discovery_latency 	6366
scalar Network900.node100 	number_of_desired_resources 	20
scalar Network900.node100 	query_homogenity_rate 	33.333333333333
scalar Network900.node100 	qrecord_time 	11170
scalar Network900.node100 	discovery_resolution_rate 	33.333333333333
scalar Network900.node460 	rate_of_requesters 	1
scalar Network900.node460 	number_of_resources 	49500
scalar Network900.node460 	time_period 	2
scalar Network900.node460 	number_of_messages 	18
scalar Network900.node460 	discovery_latency 	6318
scalar Network900.node460 	number_of_desired_resources 	20
scalar Network900.node460 	query_homogenity_rate 	33.333333333333
scalar Network900.node460 	qrecord_time 	11173.171241931
scalar Network900.node460 	discovery_resolution_rate 	33.333333333333
scalar Network900.node220 	rate_of_requesters 	1
scalar Network900.node220 	number_of_resources 	49500
scalar Network900.node220 	time_period 	2
scalar Network900.node220 	number_of_messages 	2
scalar Network900.node220 	discovery_latency 	6186
scalar Network900.node220 	number_of_desired_resources 	20
scalar Network900.node220 	query_homogenity_rate 	33.333333333333
scalar Network900.node220 	qrecord_time 	11173.57556926
scalar Network900.node220 	discovery_resolution_rate 	0
scalar Network900.node440 	rate_of_requesters 	1
scalar Network900.node440 	number_of_resources 	49500
scalar Network900.node440 	time_period 	1
scalar Network900.node440 	number_of_messages 	2
scalar Network900.node440 	discovery_latency 	6366
scalar Network900.node440 	number_of_desired_resources 	20
scalar Network900.node440 	query_homogenity_rate 	33.333333333333
scalar Network900.node440 	qrecord_time 	11176
scalar Network900.node440 	discovery_resolution_rate 	0
scalar Network900.node370 	rate_of_requesters 	1
scalar Network900.node370 	number_of_resources 	49500
scalar Network900.node370 	time_period 	1
scalar Network900.node370 	number_of_messages 	295
scalar Network900.node370 	discovery_latency 	6402
scalar Network900.node370 	number_of_desired_resources 	20
scalar Network900.node370 	query_homogenity_rate 	33.333333333333
scalar Network900.node370 	qrecord_time 	11176
scalar Network900.node370 	discovery_resolution_rate 	16.666666666667
scalar Network900.node660 	rate_of_requesters 	1
scalar Network900.node660 	number_of_resources 	49500
scalar Network900.node660 	time_period 	1
scalar Network900.node660 	number_of_messages 	2
scalar Network900.node660 	discovery_latency 	6450
scalar Network900.node660 	number_of_desired_resources 	20
scalar Network900.node660 	query_homogenity_rate 	33.333333333333
scalar Network900.node660 	qrecord_time 	11182
scalar Network900.node660 	discovery_resolution_rate 	0
scalar Network900.node350 	rate_of_requesters 	1
scalar Network900.node350 	number_of_resources 	49500
scalar Network900.node350 	time_period 	1
scalar Network900.node350 	number_of_messages 	2
scalar Network900.node350 	discovery_latency 	6414
scalar Network900.node350 	number_of_desired_resources 	20
scalar Network900.node350 	query_homogenity_rate 	33.333333333333
scalar Network900.node350 	qrecord_time 	11182
scalar Network900.node350 	discovery_resolution_rate 	0
scalar Network900.node550 	rate_of_requesters 	1
scalar Network900.node550 	number_of_resources 	49500
scalar Network900.node550 	time_period 	1
scalar Network900.node550 	number_of_messages 	0
scalar Network900.node550 	discovery_latency 	6486
scalar Network900.node550 	number_of_desired_resources 	20
scalar Network900.node550 	query_homogenity_rate 	33.333333333333
scalar Network900.node550 	qrecord_time 	11182
scalar Network900.node550 	discovery_resolution_rate 	0
scalar Network900.node330 	rate_of_requesters 	1
scalar Network900.node330 	number_of_resources 	49500
scalar Network900.node330 	time_period 	1
scalar Network900.node330 	number_of_messages 	2
scalar Network900.node330 	discovery_latency 	6426
scalar Network900.node330 	number_of_desired_resources 	20
scalar Network900.node330 	query_homogenity_rate 	33.333333333333
scalar Network900.node330 	qrecord_time 	11200
scalar Network900.node330 	discovery_resolution_rate 	0
scalar Network900.node430 	rate_of_requesters 	1
scalar Network900.node430 	number_of_resources 	49500
scalar Network900.node430 	time_period 	2
scalar Network900.node430 	number_of_messages 	0
scalar Network900.node430 	discovery_latency 	6270
scalar Network900.node430 	number_of_desired_resources 	20
scalar Network900.node430 	query_homogenity_rate 	33.333333333333
scalar Network900.node430 	qrecord_time 	11203.977831988
scalar Network900.node430 	discovery_resolution_rate 	0
scalar Network900.node750 	rate_of_requesters 	1
scalar Network900.node750 	number_of_resources 	49500
scalar Network900.node750 	time_period 	1
scalar Network900.node750 	number_of_messages 	18
scalar Network900.node750 	discovery_latency 	6474
scalar Network900.node750 	number_of_desired_resources 	20
scalar Network900.node750 	query_homogenity_rate 	33.333333333333
scalar Network900.node750 	qrecord_time 	11206
scalar Network900.node750 	discovery_resolution_rate 	33.333333333333
scalar Network900.node590 	rate_of_requesters 	1
scalar Network900.node590 	number_of_resources 	49500
scalar Network900.node590 	time_period 	1
scalar Network900.node590 	number_of_messages 	2
scalar Network900.node590 	discovery_latency 	6522
scalar Network900.node590 	number_of_desired_resources 	20
scalar Network900.node590 	query_homogenity_rate 	33.333333333333
scalar Network900.node590 	qrecord_time 	11212
scalar Network900.node590 	discovery_resolution_rate 	0
scalar Network900.node780 	rate_of_requesters 	1
scalar Network900.node780 	number_of_resources 	49500
scalar Network900.node780 	time_period 	1
scalar Network900.node780 	number_of_messages 	2
scalar Network900.node780 	discovery_latency 	6378
scalar Network900.node780 	number_of_desired_resources 	20
scalar Network900.node780 	query_homogenity_rate 	33.333333333333
scalar Network900.node780 	qrecord_time 	11218
scalar Network900.node780 	discovery_resolution_rate 	0
scalar Network900.node640 	rate_of_requesters 	1
scalar Network900.node640 	number_of_resources 	49500
scalar Network900.node640 	time_period 	1
scalar Network900.node640 	number_of_messages 	0
scalar Network900.node640 	discovery_latency 	6522
scalar Network900.node640 	number_of_desired_resources 	20
scalar Network900.node640 	query_homogenity_rate 	33.333333333333
scalar Network900.node640 	qrecord_time 	11218
scalar Network900.node640 	discovery_resolution_rate 	0
scalar Network900.node260 	rate_of_requesters 	1
scalar Network900.node260 	number_of_resources 	49500
scalar Network900.node260 	time_period 	1
scalar Network900.node260 	number_of_messages 	2
scalar Network900.node260 	discovery_latency 	6486
scalar Network900.node260 	number_of_desired_resources 	20
scalar Network900.node260 	query_homogenity_rate 	33.333333333333
scalar Network900.node260 	qrecord_time 	11248
scalar Network900.node260 	discovery_resolution_rate 	0
scalar Network900.node770 	rate_of_requesters 	1
scalar Network900.node770 	number_of_resources 	49500
scalar Network900.node770 	time_period 	2
scalar Network900.node770 	number_of_messages 	2
scalar Network900.node770 	discovery_latency 	6414
scalar Network900.node770 	number_of_desired_resources 	20
scalar Network900.node770 	query_homogenity_rate 	33.333333333333
scalar Network900.node770 	qrecord_time 	11291.641360962
scalar Network900.node770 	discovery_resolution_rate 	0
scalar Network900.node730 	rate_of_requesters 	1
scalar Network900.node730 	number_of_resources 	49500
scalar Network900.node730 	time_period 	1
scalar Network900.node730 	number_of_messages 	2
scalar Network900.node730 	discovery_latency 	6414
scalar Network900.node730 	number_of_desired_resources 	20
scalar Network900.node730 	query_homogenity_rate 	33.333333333333
scalar Network900.node730 	qrecord_time 	11308
scalar Network900.node730 	discovery_resolution_rate 	0
scalar Network900.node90 	rate_of_requesters 	1
scalar Network900.node90 	number_of_resources 	49500
scalar Network900.node90 	time_period 	2
scalar Network900.node90 	number_of_messages 	2
scalar Network900.node90 	discovery_latency 	6450
scalar Network900.node90 	number_of_desired_resources 	20
scalar Network900.node90 	query_homogenity_rate 	33.333333333333
scalar Network900.node90 	qrecord_time 	11321.539594558
scalar Network900.node90 	discovery_resolution_rate 	0
scalar Network900.node800 	rate_of_requesters 	1
scalar Network900.node800 	number_of_resources 	49500
scalar Network900.node800 	time_period 	1
scalar Network900.node800 	number_of_messages 	2
scalar Network900.node800 	discovery_latency 	6534
scalar Network900.node800 	number_of_desired_resources 	20
scalar Network900.node800 	query_homogenity_rate 	33.333333333333
scalar Network900.node800 	qrecord_time 	11338
scalar Network900.node800 	discovery_resolution_rate 	0
scalar Network900.node240 	rate_of_requesters 	1
scalar Network900.node240 	number_of_resources 	49500
scalar Network900.node240 	time_period 	1
scalar Network900.node240 	number_of_messages 	16
scalar Network900.node240 	discovery_latency 	6558
scalar Network900.node240 	number_of_desired_resources 	20
scalar Network900.node240 	query_homogenity_rate 	33.333333333333
scalar Network900.node240 	qrecord_time 	11356
scalar Network900.node240 	discovery_resolution_rate 	33.333333333333
scalar Network900.node160 	rate_of_requesters 	1
scalar Network900.node160 	number_of_resources 	49500
scalar Network900.node160 	time_period 	1
scalar Network900.node160 	number_of_messages 	2
scalar Network900.node160 	discovery_latency 	6570
scalar Network900.node160 	number_of_desired_resources 	20
scalar Network900.node160 	query_homogenity_rate 	33.333333333333
scalar Network900.node160 	qrecord_time 	11374
scalar Network900.node160 	discovery_resolution_rate 	0
scalar Network900.node110 	rate_of_requesters 	1
scalar Network900.node110 	number_of_resources 	49500
scalar Network900.node110 	time_period 	2
scalar Network900.node110 	number_of_messages 	0
scalar Network900.node110 	discovery_latency 	6426
scalar Network900.node110 	number_of_desired_resources 	20
scalar Network900.node110 	query_homogenity_rate 	33.333333333333
scalar Network900.node110 	qrecord_time 	11391.675978389
scalar Network900.node110 	discovery_resolution_rate 	0
scalar Network900.node230 	rate_of_requesters 	1
scalar Network900.node230 	number_of_resources 	49500
scalar Network900.node230 	time_period 	2
scalar Network900.node230 	number_of_messages 	2
scalar Network900.node230 	discovery_latency 	6294
scalar Network900.node230 	number_of_desired_resources 	20
scalar Network900.node230 	query_homogenity_rate 	33.333333333333
scalar Network900.node230 	qrecord_time 	11420.411044493
scalar Network900.node230 	discovery_resolution_rate 	0
scalar Network900.node120 	rate_of_requesters 	1
scalar Network900.node120 	number_of_resources 	49500
scalar Network900.node120 	time_period 	2
scalar Network900.node120 	number_of_messages 	2
scalar Network900.node120 	discovery_latency 	6234
scalar Network900.node120 	number_of_desired_resources 	20
scalar Network900.node120 	query_homogenity_rate 	33.333333333333
scalar Network900.node120 	qrecord_time 	11434.53397736
scalar Network900.node120 	discovery_resolution_rate 	0
scalar Network900.node390 	rate_of_requesters 	1
scalar Network900.node390 	number_of_resources 	49500
scalar Network900.node390 	time_period 	2
scalar Network900.node390 	number_of_messages 	2
scalar Network900.node390 	discovery_latency 	6462
scalar Network900.node390 	number_of_desired_resources 	20
scalar Network900.node390 	query_homogenity_rate 	33.333333333333
scalar Network900.node390 	qrecord_time 	11457.486820171
scalar Network900.node390 	discovery_resolution_rate 	0
scalar Network900.node720 	rate_of_requesters 	1
scalar Network900.node720 	number_of_resources 	49500
scalar Network900.node720 	time_period 	3
scalar Network900.node720 	number_of_messages 	2
scalar Network900.node720 	discovery_latency 	6246
scalar Network900.node720 	number_of_desired_resources 	20
scalar Network900.node720 	query_homogenity_rate 	33.333333333333
scalar Network900.node720 	qrecord_time 	11465.52504101
scalar Network900.node720 	discovery_resolution_rate 	0
scalar Network900.node640 	rate_of_requesters 	1
scalar Network900.node640 	number_of_resources 	49500
scalar Network900.node640 	time_period 	2
scalar Network900.node640 	number_of_messages 	0
scalar Network900.node640 	discovery_latency 	6462
scalar Network900.node640 	number_of_desired_resources 	20
scalar Network900.node640 	query_homogenity_rate 	33.333333333333
scalar Network900.node640 	qrecord_time 	11486.702281477
scalar Network900.node640 	discovery_resolution_rate 	0
scalar Network900.node640 	rate_of_requesters 	1
scalar Network900.node640 	number_of_resources 	49500
scalar Network900.node640 	time_period 	3
scalar Network900.node640 	number_of_messages 	0
scalar Network900.node640 	discovery_latency 	6342
scalar Network900.node640 	number_of_desired_resources 	20
scalar Network900.node640 	query_homogenity_rate 	33.333333333333
scalar Network900.node640 	qrecord_time 	11500.840041756
scalar Network900.node640 	discovery_resolution_rate 	0
scalar Network900.node400 	rate_of_requesters 	1
scalar Network900.node400 	number_of_resources 	49500
scalar Network900.node400 	time_period 	2
scalar Network900.node400 	number_of_messages 	2
scalar Network900.node400 	discovery_latency 	6150
scalar Network900.node400 	number_of_desired_resources 	20
scalar Network900.node400 	query_homogenity_rate 	33.333333333333
scalar Network900.node400 	qrecord_time 	11620.373239412
scalar Network900.node400 	discovery_resolution_rate 	0
scalar Network900.node20 	rate_of_requesters 	1
scalar Network900.node20 	number_of_resources 	49500
scalar Network900.node20 	time_period 	2
scalar Network900.node20 	number_of_messages 	2
scalar Network900.node20 	discovery_latency 	6462
scalar Network900.node20 	number_of_desired_resources 	20
scalar Network900.node20 	query_homogenity_rate 	33.333333333333
scalar Network900.node20 	qrecord_time 	11680.764240943
scalar Network900.node20 	discovery_resolution_rate 	0
scalar Network900.node0 	rate_of_requesters 	1
scalar Network900.node0 	number_of_resources 	49500
scalar Network900.node0 	time_period 	2
scalar Network900.node0 	number_of_messages 	2
scalar Network900.node0 	discovery_latency 	6414
scalar Network900.node0 	number_of_desired_resources 	20
scalar Network900.node0 	query_homogenity_rate 	33.333333333333
scalar Network900.node0 	qrecord_time 	11757.350444615
scalar Network900.node0 	discovery_resolution_rate 	0
scalar Network900.node370 	rate_of_requesters 	1
scalar Network900.node370 	number_of_resources 	49500
scalar Network900.node370 	time_period 	2
scalar Network900.node370 	number_of_messages 	2
scalar Network900.node370 	discovery_latency 	6186
scalar Network900.node370 	number_of_desired_resources 	20
scalar Network900.node370 	query_homogenity_rate 	33.333333333333
scalar Network900.node370 	qrecord_time 	11793.744046997
scalar Network900.node370 	discovery_resolution_rate 	0
scalar Network900.node20 	rate_of_requesters 	1
scalar Network900.node20 	number_of_resources 	49500
scalar Network900.node20 	time_period 	3
scalar Network900.node20 	number_of_messages 	2
scalar Network900.node20 	discovery_latency 	6486
scalar Network900.node20 	number_of_desired_resources 	20
scalar Network900.node20 	query_homogenity_rate 	33.333333333333
scalar Network900.node20 	qrecord_time 	11803.04665622
scalar Network900.node20 	discovery_resolution_rate 	0
scalar Network900.node340 	rate_of_requesters 	1
scalar Network900.node340 	number_of_resources 	49500
scalar Network900.node340 	time_period 	2
scalar Network900.node340 	number_of_messages 	2
scalar Network900.node340 	discovery_latency 	6150
scalar Network900.node340 	number_of_desired_resources 	20
scalar Network900.node340 	query_homogenity_rate 	33.333333333333
scalar Network900.node340 	qrecord_time 	11843.706641795
scalar Network900.node340 	discovery_resolution_rate 	0
scalar Network900.node540 	rate_of_requesters 	1
scalar Network900.node540 	number_of_resources 	49500
scalar Network900.node540 	time_period 	2
scalar Network900.node540 	number_of_messages 	2
scalar Network900.node540 	discovery_latency 	6378
scalar Network900.node540 	number_of_desired_resources 	20
scalar Network900.node540 	query_homogenity_rate 	33.333333333333
scalar Network900.node540 	qrecord_time 	12037.752683933
scalar Network900.node540 	discovery_resolution_rate 	0
scalar Network900.node150 	rate_of_requesters 	1
scalar Network900.node150 	number_of_resources 	49500
scalar Network900.node150 	time_period 	2
scalar Network900.node150 	number_of_messages 	2
scalar Network900.node150 	discovery_latency 	6342
scalar Network900.node150 	number_of_desired_resources 	20
scalar Network900.node150 	query_homogenity_rate 	33.333333333333
scalar Network900.node150 	qrecord_time 	12092.110059352
scalar Network900.node150 	discovery_resolution_rate 	0
scalar Network900.node120 	rate_of_requesters 	1
scalar Network900.node120 	number_of_resources 	49500
scalar Network900.node120 	time_period 	3
scalar Network900.node120 	number_of_messages 	2
scalar Network900.node120 	discovery_latency 	6426
scalar Network900.node120 	number_of_desired_resources 	20
scalar Network900.node120 	query_homogenity_rate 	33.333333333333
scalar Network900.node120 	qrecord_time 	12095.720623298
scalar Network900.node120 	discovery_resolution_rate 	0
scalar Network900.node540 	rate_of_requesters 	1
scalar Network900.node540 	number_of_resources 	49500
scalar Network900.node540 	time_period 	3
scalar Network900.node540 	number_of_messages 	2
scalar Network900.node540 	discovery_latency 	6438
scalar Network900.node540 	number_of_desired_resources 	20
scalar Network900.node540 	query_homogenity_rate 	33.333333333333
scalar Network900.node540 	qrecord_time 	12154.045310033
scalar Network900.node540 	discovery_resolution_rate 	0
scalar Network900.node400 	rate_of_requesters 	1
scalar Network900.node400 	number_of_resources 	49500
scalar Network900.node400 	time_period 	3
scalar Network900.node400 	number_of_messages 	2
scalar Network900.node400 	discovery_latency 	6282
scalar Network900.node400 	number_of_desired_resources 	20
scalar Network900.node400 	query_homogenity_rate 	33.333333333333
scalar Network900.node400 	qrecord_time 	12184.877301921
scalar Network900.node400 	discovery_resolution_rate 	0
scalar Network900.node40 	rate_of_requesters 	1
scalar Network900.node40 	number_of_resources 	49500
scalar Network900.node40 	time_period 	2
scalar Network900.node40 	number_of_messages 	2
scalar Network900.node40 	discovery_latency 	6222
scalar Network900.node40 	number_of_desired_resources 	20
scalar Network900.node40 	query_homogenity_rate 	33.333333333333
scalar Network900.node40 	qrecord_time 	12195.717292586
scalar Network900.node40 	discovery_resolution_rate 	0
scalar Network900.node220 	rate_of_requesters 	1
scalar Network900.node220 	number_of_resources 	49500
scalar Network900.node220 	time_period 	3
scalar Network900.node220 	number_of_messages 	2
scalar Network900.node220 	discovery_latency 	6222
scalar Network900.node220 	number_of_desired_resources 	20
scalar Network900.node220 	query_homogenity_rate 	33.333333333333
scalar Network900.node220 	qrecord_time 	12222.57777424
scalar Network900.node220 	discovery_resolution_rate 	0
scalar Network900.node850 	rate_of_requesters 	1
scalar Network900.node850 	number_of_resources 	49500
scalar Network900.node850 	time_period 	2
scalar Network900.node850 	number_of_messages 	2
scalar Network900.node850 	discovery_latency 	6258
scalar Network900.node850 	number_of_desired_resources 	20
scalar Network900.node850 	query_homogenity_rate 	33.333333333333
scalar Network900.node850 	qrecord_time 	12233.247240656
scalar Network900.node850 	discovery_resolution_rate 	0
scalar Network900.node640 	rate_of_requesters 	1
scalar Network900.node640 	number_of_resources 	49500
scalar Network900.node640 	time_period 	4
scalar Network900.node640 	number_of_messages 	0
scalar Network900.node640 	discovery_latency 	6486
scalar Network900.node640 	number_of_desired_resources 	20
scalar Network900.node640 	query_homogenity_rate 	33.333333333333
scalar Network900.node640 	qrecord_time 	12245.741723562
scalar Network900.node640 	discovery_resolution_rate 	0
scalar Network900.node380 	rate_of_requesters 	1
scalar Network900.node380 	number_of_resources 	49500
scalar Network900.node380 	time_period 	2
scalar Network900.node380 	number_of_messages 	2
scalar Network900.node380 	discovery_latency 	6390
scalar Network900.node380 	number_of_desired_resources 	20
scalar Network900.node380 	query_homogenity_rate 	33.333333333333
scalar Network900.node380 	qrecord_time 	12326.268238563
scalar Network900.node380 	discovery_resolution_rate 	0
scalar Network900.node320 	rate_of_requesters 	1
scalar Network900.node320 	number_of_resources 	49500
scalar Network900.node320 	time_period 	2
scalar Network900.node320 	number_of_messages 	2
scalar Network900.node320 	discovery_latency 	6510
scalar Network900.node320 	number_of_desired_resources 	20
scalar Network900.node320 	query_homogenity_rate 	33.333333333333
scalar Network900.node320 	qrecord_time 	12434.593775418
scalar Network900.node320 	discovery_resolution_rate 	0
scalar Network900.node680 	rate_of_requesters 	1
scalar Network900.node680 	number_of_resources 	49500
scalar Network900.node680 	time_period 	2
scalar Network900.node680 	number_of_messages 	2
scalar Network900.node680 	discovery_latency 	6390
scalar Network900.node680 	number_of_desired_resources 	20
scalar Network900.node680 	query_homogenity_rate 	33.333333333333
scalar Network900.node680 	qrecord_time 	12469.618021562
scalar Network900.node680 	discovery_resolution_rate 	0
scalar Network900.node550 	rate_of_requesters 	1
scalar Network900.node550 	number_of_resources 	49500
scalar Network900.node550 	time_period 	2
scalar Network900.node550 	number_of_messages 	0
scalar Network900.node550 	discovery_latency 	6486
scalar Network900.node550 	number_of_desired_resources 	20
scalar Network900.node550 	query_homogenity_rate 	33.333333333333
scalar Network900.node550 	qrecord_time 	12497.562371001
scalar Network900.node550 	discovery_resolution_rate 	0
scalar Network900.node20 	rate_of_requesters 	1
scalar Network900.node20 	number_of_resources 	49500
scalar Network900.node20 	time_period 	4
scalar Network900.node20 	number_of_messages 	2
scalar Network900.node20 	discovery_latency 	6402
scalar Network900.node20 	number_of_desired_resources 	20
scalar Network900.node20 	query_homogenity_rate 	33.333333333333
scalar Network900.node20 	qrecord_time 	12507.925504617
scalar Network900.node20 	discovery_resolution_rate 	0
scalar Network900.node460 	rate_of_requesters 	1
scalar Network900.node460 	number_of_resources 	49500
scalar Network900.node460 	time_period 	3
scalar Network900.node460 	number_of_messages 	2
scalar Network900.node460 	discovery_latency 	6366
scalar Network900.node460 	number_of_desired_resources 	20
scalar Network900.node460 	query_homogenity_rate 	33.333333333333
scalar Network900.node460 	qrecord_time 	12534.965801999
scalar Network900.node460 	discovery_resolution_rate 	0
scalar Network900.node450 	rate_of_requesters 	1
scalar Network900.node450 	number_of_resources 	49500
scalar Network900.node450 	time_period 	2
scalar Network900.node450 	number_of_messages 	2
scalar Network900.node450 	discovery_latency 	6138
scalar Network900.node450 	number_of_desired_resources 	20
scalar Network900.node450 	query_homogenity_rate 	33.333333333333
scalar Network900.node450 	qrecord_time 	12539.430245976
scalar Network900.node450 	discovery_resolution_rate 	0
scalar Network900.node10 	rate_of_requesters 	1
scalar Network900.node10 	number_of_resources 	49500
scalar Network900.node10 	time_period 	2
scalar Network900.node10 	number_of_messages 	2
scalar Network900.node10 	discovery_latency 	6318
scalar Network900.node10 	number_of_desired_resources 	20
scalar Network900.node10 	query_homogenity_rate 	33.333333333333
scalar Network900.node10 	qrecord_time 	12610.97062242
scalar Network900.node10 	discovery_resolution_rate 	0
scalar Network900.node790 	rate_of_requesters 	1
scalar Network900.node790 	number_of_resources 	49500
scalar Network900.node790 	time_period 	3
scalar Network900.node790 	number_of_messages 	0
scalar Network900.node790 	discovery_latency 	6294
scalar Network900.node790 	number_of_desired_resources 	20
scalar Network900.node790 	query_homogenity_rate 	33.333333333333
scalar Network900.node790 	qrecord_time 	12611.71400866
scalar Network900.node790 	discovery_resolution_rate 	0
scalar Network900.node50 	rate_of_requesters 	1
scalar Network900.node50 	number_of_resources 	49500
scalar Network900.node50 	time_period 	2
scalar Network900.node50 	number_of_messages 	2
scalar Network900.node50 	discovery_latency 	6390
scalar Network900.node50 	number_of_desired_resources 	20
scalar Network900.node50 	query_homogenity_rate 	33.333333333333
scalar Network900.node50 	qrecord_time 	12613.307163096
scalar Network900.node50 	discovery_resolution_rate 	0
scalar Network900.node300 	rate_of_requesters 	1
scalar Network900.node300 	number_of_resources 	49500
scalar Network900.node300 	time_period 	3
scalar Network900.node300 	number_of_messages 	2
scalar Network900.node300 	discovery_latency 	6498
scalar Network900.node300 	number_of_desired_resources 	20
scalar Network900.node300 	query_homogenity_rate 	33.333333333333
scalar Network900.node300 	qrecord_time 	12667.318689953
scalar Network900.node300 	discovery_resolution_rate 	0
scalar Network900.node810 	rate_of_requesters 	1
scalar Network900.node810 	number_of_resources 	49500
scalar Network900.node810 	time_period 	2
scalar Network900.node810 	number_of_messages 	0
scalar Network900.node810 	discovery_latency 	6366
scalar Network900.node810 	number_of_desired_resources 	20
scalar Network900.node810 	query_homogenity_rate 	33.333333333333
scalar Network900.node810 	qrecord_time 	12786.012303203
scalar Network900.node810 	discovery_resolution_rate 	0
scalar Network900.node770 	rate_of_requesters 	1
scalar Network900.node770 	number_of_resources 	49500
scalar Network900.node770 	time_period 	3
scalar Network900.node770 	number_of_messages 	2
scalar Network900.node770 	discovery_latency 	6390
scalar Network900.node770 	number_of_desired_resources 	20
scalar Network900.node770 	query_homogenity_rate 	33.333333333333
scalar Network900.node770 	qrecord_time 	12809.592613018
scalar Network900.node770 	discovery_resolution_rate 	0
scalar Network900.node50 	rate_of_requesters 	1
scalar Network900.node50 	number_of_resources 	49500
scalar Network900.node50 	time_period 	3
scalar Network900.node50 	number_of_messages 	2
scalar Network900.node50 	discovery_latency 	6282
scalar Network900.node50 	number_of_desired_resources 	20
scalar Network900.node50 	query_homogenity_rate 	33.333333333333
scalar Network900.node50 	qrecord_time 	12818.252214106
scalar Network900.node50 	discovery_resolution_rate 	0
scalar Network900.node290 	rate_of_requesters 	1
scalar Network900.node290 	number_of_resources 	49500
scalar Network900.node290 	time_period 	2
scalar Network900.node290 	number_of_messages 	2
scalar Network900.node290 	discovery_latency 	6534
scalar Network900.node290 	number_of_desired_resources 	20
scalar Network900.node290 	query_homogenity_rate 	33.333333333333
scalar Network900.node290 	qrecord_time 	12834.275944515
scalar Network900.node290 	discovery_resolution_rate 	0
scalar Network900.node520 	rate_of_requesters 	1
scalar Network900.node520 	number_of_resources 	49500
scalar Network900.node520 	time_period 	2
scalar Network900.node520 	number_of_messages 	2
scalar Network900.node520 	discovery_latency 	6342
scalar Network900.node520 	number_of_desired_resources 	20
scalar Network900.node520 	query_homogenity_rate 	33.333333333333
scalar Network900.node520 	qrecord_time 	12896.515666161
scalar Network900.node520 	discovery_resolution_rate 	0
scalar Network900.node280 	rate_of_requesters 	1
scalar Network900.node280 	number_of_resources 	49500
scalar Network900.node280 	time_period 	2
scalar Network900.node280 	number_of_messages 	2
scalar Network900.node280 	discovery_latency 	6498
scalar Network900.node280 	number_of_desired_resources 	20
scalar Network900.node280 	query_homogenity_rate 	33.333333333333
scalar Network900.node280 	qrecord_time 	12914.001444614
scalar Network900.node280 	discovery_resolution_rate 	0
scalar Network900.node80 	rate_of_requesters 	1
scalar Network900.node80 	number_of_resources 	49500
scalar Network900.node80 	time_period 	2
scalar Network900.node80 	number_of_messages 	247
scalar Network900.node80 	discovery_latency 	6390
scalar Network900.node80 	number_of_desired_resources 	20
scalar Network900.node80 	query_homogenity_rate 	33.333333333333
scalar Network900.node80 	qrecord_time 	12945.310357114
scalar Network900.node80 	discovery_resolution_rate 	33.333333333333
scalar Network900.node40 	rate_of_requesters 	1
scalar Network900.node40 	number_of_resources 	49500
scalar Network900.node40 	time_period 	3
scalar Network900.node40 	number_of_messages 	2
scalar Network900.node40 	discovery_latency 	6366
scalar Network900.node40 	number_of_desired_resources 	20
scalar Network900.node40 	query_homogenity_rate 	33.333333333333
scalar Network900.node40 	qrecord_time 	12999.606534285
scalar Network900.node40 	discovery_resolution_rate 	0
scalar Network900.node440 	rate_of_requesters 	1
scalar Network900.node440 	number_of_resources 	49500
scalar Network900.node440 	time_period 	2
scalar Network900.node440 	number_of_messages 	2
scalar Network900.node440 	discovery_latency 	6498
scalar Network900.node440 	number_of_desired_resources 	20
scalar Network900.node440 	query_homogenity_rate 	33.333333333333
scalar Network900.node440 	qrecord_time 	13010.144575644
scalar Network900.node440 	discovery_resolution_rate 	0
scalar Network900.node310 	rate_of_requesters 	1
scalar Network900.node310 	number_of_resources 	49500
scalar Network900.node310 	time_period 	2
scalar Network900.node310 	number_of_messages 	2
scalar Network900.node310 	discovery_latency 	6366
scalar Network900.node310 	number_of_desired_resources 	20
scalar Network900.node310 	query_homogenity_rate 	33.333333333333
scalar Network900.node310 	qrecord_time 	13105.735246353
scalar Network900.node310 	discovery_resolution_rate 	0
scalar Network900.node750 	rate_of_requesters 	1
scalar Network900.node750 	number_of_resources 	49500
scalar Network900.node750 	time_period 	2
scalar Network900.node750 	number_of_messages 	2
scalar Network900.node750 	discovery_latency 	6306
scalar Network900.node750 	number_of_desired_resources 	20
scalar Network900.node750 	query_homogenity_rate 	33.333333333333
scalar Network900.node750 	qrecord_time 	13158.533316351
scalar Network900.node750 	discovery_resolution_rate 	0
scalar Network900.node830 	rate_of_requesters 	1
scalar Network900.node830 	number_of_resources 	49500
scalar Network900.node830 	time_period 	2
scalar Network900.node830 	number_of_messages 	2
scalar Network900.node830 	discovery_latency 	6270
scalar Network900.node830 	number_of_desired_resources 	20
scalar Network900.node830 	query_homogenity_rate 	33.333333333333
scalar Network900.node830 	qrecord_time 	13180.745300293
scalar Network900.node830 	discovery_resolution_rate 	0
scalar Network900.node90 	rate_of_requesters 	1
scalar Network900.node90 	number_of_resources 	49500
scalar Network900.node90 	time_period 	3
scalar Network900.node90 	number_of_messages 	2
scalar Network900.node90 	discovery_latency 	6366
scalar Network900.node90 	number_of_desired_resources 	20
scalar Network900.node90 	query_homogenity_rate 	33.333333333333
scalar Network900.node90 	qrecord_time 	13285.753961449
scalar Network900.node90 	discovery_resolution_rate 	0
scalar Network900.node70 	rate_of_requesters 	1
scalar Network900.node70 	number_of_resources 	49500
scalar Network900.node70 	time_period 	2
scalar Network900.node70 	number_of_messages 	2
scalar Network900.node70 	discovery_latency 	6366
scalar Network900.node70 	number_of_desired_resources 	20
scalar Network900.node70 	query_homogenity_rate 	33.333333333333
scalar Network900.node70 	qrecord_time 	13289.298441225
scalar Network900.node70 	discovery_resolution_rate 	0
scalar Network900.node740 	rate_of_requesters 	1
scalar Network900.node740 	number_of_resources 	49500
scalar Network900.node740 	time_period 	2
scalar Network900.node740 	number_of_messages 	0
scalar Network900.node740 	discovery_latency 	6402
scalar Network900.node740 	number_of_desired_resources 	20
scalar Network900.node740 	query_homogenity_rate 	33.333333333333
scalar Network900.node740 	qrecord_time 	13306.629699692
scalar Network900.node740 	discovery_resolution_rate 	0
scalar Network900.node100 	rate_of_requesters 	1
scalar Network900.node100 	number_of_resources 	49500
scalar Network900.node100 	time_period 	2
scalar Network900.node100 	number_of_messages 	2
scalar Network900.node100 	discovery_latency 	6282
scalar Network900.node100 	number_of_desired_resources 	20
scalar Network900.node100 	query_homogenity_rate 	33.333333333333
scalar Network900.node100 	qrecord_time 	13324.108995689
scalar Network900.node100 	discovery_resolution_rate 	0
scalar Network900.node320 	rate_of_requesters 	1
scalar Network900.node320 	number_of_resources 	49500
scalar Network900.node320 	time_period 	3
scalar Network900.node320 	number_of_messages 	2
scalar Network900.node320 	discovery_latency 	6450
scalar Network900.node320 	number_of_desired_resources 	20
scalar Network900.node320 	query_homogenity_rate 	33.333333333333
scalar Network900.node320 	qrecord_time 	13334.432175498
scalar Network900.node320 	discovery_resolution_rate 	0
scalar Network900.node550 	rate_of_requesters 	1
scalar Network900.node550 	number_of_resources 	49500
scalar Network900.node550 	time_period 	3
scalar Network900.node550 	number_of_messages 	0
scalar Network900.node550 	discovery_latency 	6546
scalar Network900.node550 	number_of_desired_resources 	20
scalar Network900.node550 	query_homogenity_rate 	33.333333333333
scalar Network900.node550 	qrecord_time 	13346.002052679
scalar Network900.node550 	discovery_resolution_rate 	0
scalar Network900.node390 	rate_of_requesters 	1
scalar Network900.node390 	number_of_resources 	49500
scalar Network900.node390 	time_period 	3
scalar Network900.node390 	number_of_messages 	2
scalar Network900.node390 	discovery_latency 	6510
scalar Network900.node390 	number_of_desired_resources 	20
scalar Network900.node390 	query_homogenity_rate 	33.333333333333
scalar Network900.node390 	qrecord_time 	13346.515820536
scalar Network900.node390 	discovery_resolution_rate 	0
scalar Network900.node70 	rate_of_requesters 	1
scalar Network900.node70 	number_of_resources 	49500
scalar Network900.node70 	time_period 	3
scalar Network900.node70 	number_of_messages 	2
scalar Network900.node70 	discovery_latency 	6270
scalar Network900.node70 	number_of_desired_resources 	20
scalar Network900.node70 	query_homogenity_rate 	33.333333333333
scalar Network900.node70 	qrecord_time 	13411.547364366
scalar Network900.node70 	discovery_resolution_rate 	0
scalar Network900.node80 	rate_of_requesters 	1
scalar Network900.node80 	number_of_resources 	49500
scalar Network900.node80 	time_period 	3
scalar Network900.node80 	number_of_messages 	2
scalar Network900.node80 	discovery_latency 	6282
scalar Network900.node80 	number_of_desired_resources 	20
scalar Network900.node80 	query_homogenity_rate 	33.333333333333
scalar Network900.node80 	qrecord_time 	13439.966753719
scalar Network900.node80 	discovery_resolution_rate 	0
scalar Network900.node110 	rate_of_requesters 	1
scalar Network900.node110 	number_of_resources 	49500
scalar Network900.node110 	time_period 	3
scalar Network900.node110 	number_of_messages 	0
scalar Network900.node110 	discovery_latency 	6186
scalar Network900.node110 	number_of_desired_resources 	20
scalar Network900.node110 	query_homogenity_rate 	33.333333333333
scalar Network900.node110 	qrecord_time 	13442.02697055
scalar Network900.node110 	discovery_resolution_rate 	0
scalar Network900.node800 	rate_of_requesters 	1
scalar Network900.node800 	number_of_resources 	49500
scalar Network900.node800 	time_period 	2
scalar Network900.node800 	number_of_messages 	2
scalar Network900.node800 	discovery_latency 	6210
scalar Network900.node800 	number_of_desired_resources 	20
scalar Network900.node800 	query_homogenity_rate 	33.333333333333
scalar Network900.node800 	qrecord_time 	13481.4817951
scalar Network900.node800 	discovery_resolution_rate 	0
scalar Network900.node770 	rate_of_requesters 	1
scalar Network900.node770 	number_of_resources 	49500
scalar Network900.node770 	time_period 	4
scalar Network900.node770 	number_of_messages 	2
scalar Network900.node770 	discovery_latency 	6258
scalar Network900.node770 	number_of_desired_resources 	20
scalar Network900.node770 	query_homogenity_rate 	33.333333333333
scalar Network900.node770 	qrecord_time 	13510.022729852
scalar Network900.node770 	discovery_resolution_rate 	0
scalar Network900.node200 	rate_of_requesters 	1
scalar Network900.node200 	number_of_resources 	49500
scalar Network900.node200 	time_period 	2
scalar Network900.node200 	number_of_messages 	2
scalar Network900.node200 	discovery_latency 	6426
scalar Network900.node200 	number_of_desired_resources 	20
scalar Network900.node200 	query_homogenity_rate 	33.333333333333
scalar Network900.node200 	qrecord_time 	13521.28790708
scalar Network900.node200 	discovery_resolution_rate 	0
scalar Network900.node450 	rate_of_requesters 	1
scalar Network900.node450 	number_of_resources 	49500
scalar Network900.node450 	time_period 	3
scalar Network900.node450 	number_of_messages 	2
scalar Network900.node450 	discovery_latency 	6294
scalar Network900.node450 	number_of_desired_resources 	20
scalar Network900.node450 	query_homogenity_rate 	33.333333333333
scalar Network900.node450 	qrecord_time 	13530.061212241
scalar Network900.node450 	discovery_resolution_rate 	0
scalar Network900.node350 	rate_of_requesters 	1
scalar Network900.node350 	number_of_resources 	49500
scalar Network900.node350 	time_period 	2
scalar Network900.node350 	number_of_messages 	2
scalar Network900.node350 	discovery_latency 	6426
scalar Network900.node350 	number_of_desired_resources 	20
scalar Network900.node350 	query_homogenity_rate 	33.333333333333
scalar Network900.node350 	qrecord_time 	13592.657066329
scalar Network900.node350 	discovery_resolution_rate 	0
scalar Network900.node480 	rate_of_requesters 	1
scalar Network900.node480 	number_of_resources 	49500
scalar Network900.node480 	time_period 	3
scalar Network900.node480 	number_of_messages 	2
scalar Network900.node480 	discovery_latency 	6378
scalar Network900.node480 	number_of_desired_resources 	20
scalar Network900.node480 	query_homogenity_rate 	33.333333333333
scalar Network900.node480 	qrecord_time 	13727.354232196
scalar Network900.node480 	discovery_resolution_rate 	0
scalar Network900.node860 	rate_of_requesters 	1
scalar Network900.node860 	number_of_resources 	49500
scalar Network900.node860 	time_period 	2
scalar Network900.node860 	number_of_messages 	2
scalar Network900.node860 	discovery_latency 	6330
scalar Network900.node860 	number_of_desired_resources 	20
scalar Network900.node860 	query_homogenity_rate 	33.333333333333
scalar Network900.node860 	qrecord_time 	13749.315492841
scalar Network900.node860 	discovery_resolution_rate 	0
scalar Network900.node890 	rate_of_requesters 	1
scalar Network900.node890 	number_of_resources 	49500
scalar Network900.node890 	time_period 	2
scalar Network900.node890 	number_of_messages 	2
scalar Network900.node890 	discovery_latency 	6186
scalar Network900.node890 	number_of_desired_resources 	20
scalar Network900.node890 	query_homogenity_rate 	33.333333333333
scalar Network900.node890 	qrecord_time 	13771.541827359
scalar Network900.node890 	discovery_resolution_rate 	0
scalar Network900.node480 	rate_of_requesters 	1
scalar Network900.node480 	number_of_resources 	49500
scalar Network900.node480 	time_period 	4
scalar Network900.node480 	number_of_messages 	2
scalar Network900.node480 	discovery_latency 	6342
scalar Network900.node480 	number_of_desired_resources 	20
scalar Network900.node480 	query_homogenity_rate 	33.333333333333
scalar Network900.node480 	qrecord_time 	13789.708599423
scalar Network900.node480 	discovery_resolution_rate 	0
scalar Network900.node430 	rate_of_requesters 	1
scalar Network900.node430 	number_of_resources 	49500
scalar Network900.node430 	time_period 	3
scalar Network900.node430 	number_of_messages 	0
scalar Network900.node430 	discovery_latency 	6258
scalar Network900.node430 	number_of_desired_resources 	20
scalar Network900.node430 	query_homogenity_rate 	33.333333333333
scalar Network900.node430 	qrecord_time 	13793.576539241
scalar Network900.node430 	discovery_resolution_rate 	0
scalar Network900.node40 	rate_of_requesters 	1
scalar Network900.node40 	number_of_resources 	49500
scalar Network900.node40 	time_period 	4
[...]
scalar Network900.node30 	qrecord_time 	55110.557524623
scalar Network900.node30 	discovery_resolution_rate 	33.333333333333
scalar Network900.node720 	rate_of_requesters 	1
scalar Network900.node720 	number_of_resources 	49500
scalar Network900.node720 	time_period 	10
scalar Network900.node720 	number_of_messages 	138
scalar Network900.node720 	discovery_latency 	4980
scalar Network900.node720 	number_of_desired_resources 	20
scalar Network900.node720 	query_homogenity_rate 	33.333333333333
scalar Network900.node720 	qrecord_time 	55613.665881612
scalar Network900.node720 	discovery_resolution_rate 	66.666666666667
scalar Network900.node170 	rate_of_requesters 	1
scalar Network900.node170 	number_of_resources 	49500
scalar Network900.node170 	time_period 	8
scalar Network900.node170 	number_of_messages 	9
scalar Network900.node170 	discovery_latency 	6012
scalar Network900.node170 	number_of_desired_resources 	20
scalar Network900.node170 	query_homogenity_rate 	33.333333333333
scalar Network900.node170 	qrecord_time 	55656.077197568
scalar Network900.node170 	discovery_resolution_rate 	33.333333333333
scalar Network900.node10 	rate_of_requesters 	1
scalar Network900.node10 	number_of_resources 	49500
scalar Network900.node10 	time_period 	9
scalar Network900.node10 	number_of_messages 	147
scalar Network900.node10 	discovery_latency 	2040
scalar Network900.node10 	number_of_desired_resources 	20
scalar Network900.node10 	query_homogenity_rate 	33.333333333333
scalar Network900.node10 	qrecord_time 	55670.189691385
scalar Network900.node10 	discovery_resolution_rate 	100
scalar Network900.node130 	rate_of_requesters 	1
scalar Network900.node130 	number_of_resources 	49500
scalar Network900.node130 	time_period 	9
scalar Network900.node130 	number_of_messages 	124
scalar Network900.node130 	discovery_latency 	4908
scalar Network900.node130 	number_of_desired_resources 	20
scalar Network900.node130 	query_homogenity_rate 	33.333333333333
scalar Network900.node130 	qrecord_time 	55797.233151516
scalar Network900.node130 	discovery_resolution_rate 	66.666666666667
scalar Network900.node260 	rate_of_requesters 	1
scalar Network900.node260 	number_of_resources 	49500
scalar Network900.node260 	time_period 	10
scalar Network900.node260 	number_of_messages 	224
scalar Network900.node260 	discovery_latency 	4920
scalar Network900.node260 	number_of_desired_resources 	20
scalar Network900.node260 	query_homogenity_rate 	33.333333333333
scalar Network900.node260 	qrecord_time 	55980.667459543
scalar Network900.node260 	discovery_resolution_rate 	83.333333333333
scalar Network900.node100 	rate_of_requesters 	1
scalar Network900.node100 	number_of_resources 	49500
scalar Network900.node100 	time_period 	10
scalar Network900.node100 	number_of_messages 	136
scalar Network900.node100 	discovery_latency 	4860
scalar Network900.node100 	number_of_desired_resources 	20
scalar Network900.node100 	query_homogenity_rate 	33.333333333333
scalar Network900.node100 	qrecord_time 	56074.733756947
scalar Network900.node100 	discovery_resolution_rate 	66.666666666667
scalar Network900.node560 	rate_of_requesters 	1
scalar Network900.node560 	number_of_resources 	49500
scalar Network900.node560 	time_period 	7
scalar Network900.node560 	number_of_messages 	79
scalar Network900.node560 	discovery_latency 	4944
scalar Network900.node560 	number_of_desired_resources 	20
scalar Network900.node560 	query_homogenity_rate 	33.333333333333
scalar Network900.node560 	qrecord_time 	56182.782934861
scalar Network900.node560 	discovery_resolution_rate 	66.666666666667
scalar Network900.node30 	rate_of_requesters 	1
scalar Network900.node30 	number_of_resources 	49500
scalar Network900.node30 	time_period 	9
scalar Network900.node30 	number_of_messages 	65
scalar Network900.node30 	discovery_latency 	4932
scalar Network900.node30 	number_of_desired_resources 	20
scalar Network900.node30 	query_homogenity_rate 	33.333333333333
scalar Network900.node30 	qrecord_time 	56306.364153591
scalar Network900.node30 	discovery_resolution_rate 	66.666666666667
scalar Network900.node130 	rate_of_requesters 	1
scalar Network900.node130 	number_of_resources 	49500
scalar Network900.node130 	time_period 	8
scalar Network900.node130 	number_of_messages 	126
scalar Network900.node130 	discovery_latency 	6072
scalar Network900.node130 	number_of_desired_resources 	20
scalar Network900.node130 	query_homogenity_rate 	33.333333333333
scalar Network900.node130 	qrecord_time 	56652.821815795
scalar Network900.node130 	discovery_resolution_rate 	33.333333333333
scalar Network900.node260 	rate_of_requesters 	1
scalar Network900.node260 	number_of_resources 	49500
scalar Network900.node260 	time_period 	9
scalar Network900.node260 	number_of_messages 	42
scalar Network900.node260 	discovery_latency 	6048
scalar Network900.node260 	number_of_desired_resources 	20
scalar Network900.node260 	query_homogenity_rate 	33.333333333333
scalar Network900.node260 	qrecord_time 	56662.136123765
scalar Network900.node260 	discovery_resolution_rate 	33.333333333333
scalar Network900.node30 	rate_of_requesters 	1
scalar Network900.node30 	number_of_resources 	49500
scalar Network900.node30 	time_period 	10
scalar Network900.node30 	number_of_messages 	183
scalar Network900.node30 	discovery_latency 	4956
scalar Network900.node30 	number_of_desired_resources 	20
scalar Network900.node30 	query_homogenity_rate 	33.333333333333
scalar Network900.node30 	qrecord_time 	56771.039010199
scalar Network900.node30 	discovery_resolution_rate 	66.666666666667
scalar Network900.node430 	rate_of_requesters 	1
scalar Network900.node430 	number_of_resources 	49500
scalar Network900.node430 	time_period 	9
scalar Network900.node430 	number_of_messages 	300
scalar Network900.node430 	discovery_latency 	6036
scalar Network900.node430 	number_of_desired_resources 	20
scalar Network900.node430 	query_homogenity_rate 	33.333333333333
scalar Network900.node430 	qrecord_time 	57139.276803774
scalar Network900.node430 	discovery_resolution_rate 	66.666666666667
scalar Network900.node650 	rate_of_requesters 	1
scalar Network900.node650 	number_of_resources 	49500
scalar Network900.node650 	time_period 	8
scalar Network900.node650 	number_of_messages 	54
scalar Network900.node650 	discovery_latency 	5100
scalar Network900.node650 	number_of_desired_resources 	20
scalar Network900.node650 	query_homogenity_rate 	33.333333333333
scalar Network900.node650 	qrecord_time 	57422.759475413
scalar Network900.node650 	discovery_resolution_rate 	66.666666666667
scalar Network900.node560 	rate_of_requesters 	1
scalar Network900.node560 	number_of_resources 	49500
scalar Network900.node560 	time_period 	8
scalar Network900.node560 	number_of_messages 	71
scalar Network900.node560 	discovery_latency 	6024
scalar Network900.node560 	number_of_desired_resources 	20
scalar Network900.node560 	query_homogenity_rate 	33.333333333333
scalar Network900.node560 	qrecord_time 	57475.402720208
scalar Network900.node560 	discovery_resolution_rate 	33.333333333333
scalar Network900.node550 	rate_of_requesters 	1
scalar Network900.node550 	number_of_resources 	49500
scalar Network900.node550 	time_period 	10
scalar Network900.node550 	number_of_messages 	129
scalar Network900.node550 	discovery_latency 	4992
scalar Network900.node550 	number_of_desired_resources 	20
scalar Network900.node550 	query_homogenity_rate 	33.333333333333
scalar Network900.node550 	qrecord_time 	57710.68114742
scalar Network900.node550 	discovery_resolution_rate 	66.666666666667
scalar Network900.node10 	rate_of_requesters 	1
scalar Network900.node10 	number_of_resources 	49500
scalar Network900.node10 	time_period 	8
scalar Network900.node10 	number_of_messages 	245
scalar Network900.node10 	discovery_latency 	4872
scalar Network900.node10 	number_of_desired_resources 	20
scalar Network900.node10 	query_homogenity_rate 	33.333333333333
scalar Network900.node10 	qrecord_time 	57843.362280534
scalar Network900.node10 	discovery_resolution_rate 	66.666666666667
scalar Network900.node280 	rate_of_requesters 	1
scalar Network900.node280 	number_of_resources 	49500
scalar Network900.node280 	time_period 	10
scalar Network900.node280 	number_of_messages 	73
scalar Network900.node280 	discovery_latency 	5004
scalar Network900.node280 	number_of_desired_resources 	20
scalar Network900.node280 	query_homogenity_rate 	33.333333333333
scalar Network900.node280 	qrecord_time 	58575.308782151
scalar Network900.node280 	discovery_resolution_rate 	66.666666666667
scalar Network900.node650 	rate_of_requesters 	1
scalar Network900.node650 	number_of_resources 	49500
scalar Network900.node650 	time_period 	9
scalar Network900.node650 	number_of_messages 	112
scalar Network900.node650 	discovery_latency 	4824
scalar Network900.node650 	number_of_desired_resources 	20
scalar Network900.node650 	query_homogenity_rate 	33.333333333333
scalar Network900.node650 	qrecord_time 	58826.903461863
scalar Network900.node650 	discovery_resolution_rate 	66.666666666667
scalar Network900.node290 	rate_of_requesters 	1
scalar Network900.node290 	number_of_resources 	49500
scalar Network900.node290 	time_period 	7
scalar Network900.node290 	number_of_messages 	40
scalar Network900.node290 	discovery_latency 	6060
scalar Network900.node290 	number_of_desired_resources 	20
scalar Network900.node290 	query_homogenity_rate 	33.333333333333
scalar Network900.node290 	qrecord_time 	58909.885782261
scalar Network900.node290 	discovery_resolution_rate 	33.333333333333
scalar Network900.node800 	rate_of_requesters 	1
scalar Network900.node800 	number_of_resources 	49500
scalar Network900.node800 	time_period 	10
scalar Network900.node800 	number_of_messages 	122
scalar Network900.node800 	discovery_latency 	4932
scalar Network900.node800 	number_of_desired_resources 	20
scalar Network900.node800 	query_homogenity_rate 	33.333333333333
scalar Network900.node800 	qrecord_time 	58956.29913185
scalar Network900.node800 	discovery_resolution_rate 	66.666666666667
scalar Network900.node230 	rate_of_requesters 	1
scalar Network900.node230 	number_of_resources 	49500
scalar Network900.node230 	time_period 	9
scalar Network900.node230 	number_of_messages 	135
scalar Network900.node230 	discovery_latency 	4620
scalar Network900.node230 	number_of_desired_resources 	20
scalar Network900.node230 	query_homogenity_rate 	33.333333333333
scalar Network900.node230 	qrecord_time 	59205.138338278
scalar Network900.node230 	discovery_resolution_rate 	66.666666666667
scalar Network900.node230 	rate_of_requesters 	1
scalar Network900.node230 	number_of_resources 	49500
scalar Network900.node230 	time_period 	10
scalar Network900.node230 	number_of_messages 	129
scalar Network900.node230 	discovery_latency 	4704
scalar Network900.node230 	number_of_desired_resources 	20
scalar Network900.node230 	query_homogenity_rate 	33.333333333333
scalar Network900.node230 	qrecord_time 	59527.015810059
scalar Network900.node230 	discovery_resolution_rate 	66.666666666667
scalar Network900.node660 	rate_of_requesters 	1
scalar Network900.node660 	number_of_resources 	49500
scalar Network900.node660 	time_period 	10
scalar Network900.node660 	number_of_messages 	227
scalar Network900.node660 	discovery_latency 	2664
scalar Network900.node660 	number_of_desired_resources 	20
scalar Network900.node660 	query_homogenity_rate 	33.333333333333
scalar Network900.node660 	qrecord_time 	59675.134659595
scalar Network900.node660 	discovery_resolution_rate 	100
scalar Network900.node630 	rate_of_requesters 	1
scalar Network900.node630 	number_of_resources 	49500
scalar Network900.node630 	time_period 	10
scalar Network900.node630 	number_of_messages 	401
scalar Network900.node630 	discovery_latency 	4896
scalar Network900.node630 	number_of_desired_resources 	20
scalar Network900.node630 	query_homogenity_rate 	33.333333333333
scalar Network900.node630 	qrecord_time 	60342.285407074
scalar Network900.node630 	discovery_resolution_rate 	83.333333333333
scalar Network900.node650 	rate_of_requesters 	1
scalar Network900.node650 	number_of_resources 	49500
scalar Network900.node650 	time_period 	10
scalar Network900.node650 	number_of_messages 	60
scalar Network900.node650 	discovery_latency 	5028
scalar Network900.node650 	number_of_desired_resources 	20
scalar Network900.node650 	query_homogenity_rate 	33.333333333333
scalar Network900.node650 	qrecord_time 	61079.067326665
scalar Network900.node650 	discovery_resolution_rate 	66.666666666667
scalar Network900.node660 	rate_of_requesters 	1
scalar Network900.node660 	number_of_resources 	49500
scalar Network900.node660 	time_period 	9
scalar Network900.node660 	number_of_messages 	93
scalar Network900.node660 	discovery_latency 	4908
scalar Network900.node660 	number_of_desired_resources 	20
scalar Network900.node660 	query_homogenity_rate 	33.333333333333
scalar Network900.node660 	qrecord_time 	61858.605393254
scalar Network900.node660 	discovery_resolution_rate 	66.666666666667
scalar Network900.node560 	rate_of_requesters 	1
scalar Network900.node560 	number_of_resources 	49500
scalar Network900.node560 	time_period 	9
scalar Network900.node560 	number_of_messages 	100
scalar Network900.node560 	discovery_latency 	4944
scalar Network900.node560 	number_of_desired_resources 	20
scalar Network900.node560 	query_homogenity_rate 	33.333333333333
scalar Network900.node560 	qrecord_time 	62246.187452015
scalar Network900.node560 	discovery_resolution_rate 	66.666666666667
scalar Network900.node570 	rate_of_requesters 	1
scalar Network900.node570 	number_of_resources 	49500
scalar Network900.node570 	time_period 	10
scalar Network900.node570 	number_of_messages 	57
scalar Network900.node570 	discovery_latency 	4800
scalar Network900.node570 	number_of_desired_resources 	20
scalar Network900.node570 	query_homogenity_rate 	33.333333333333
scalar Network900.node570 	qrecord_time 	62455.866498304
scalar Network900.node570 	discovery_resolution_rate 	66.666666666667
scalar Network900.node560 	rate_of_requesters 	1
scalar Network900.node560 	number_of_resources 	49500
scalar Network900.node560 	time_period 	10
scalar Network900.node560 	number_of_messages 	64
scalar Network900.node560 	discovery_latency 	4704
scalar Network900.node560 	number_of_desired_resources 	20
scalar Network900.node560 	query_homogenity_rate 	33.333333333333
scalar Network900.node560 	qrecord_time 	62625.480397934
scalar Network900.node560 	discovery_resolution_rate 	66.666666666667
scalar Network900.node170 	rate_of_requesters 	1
scalar Network900.node170 	number_of_resources 	49500
scalar Network900.node170 	time_period 	9
scalar Network900.node170 	number_of_messages 	25
scalar Network900.node170 	discovery_latency 	4872
scalar Network900.node170 	number_of_desired_resources 	20
scalar Network900.node170 	query_homogenity_rate 	33.333333333333
scalar Network900.node170 	qrecord_time 	63108.174388411
scalar Network900.node170 	discovery_resolution_rate 	66.666666666667
scalar Network900.node170 	rate_of_requesters 	1
scalar Network900.node170 	number_of_resources 	49500
scalar Network900.node170 	time_period 	10
scalar Network900.node170 	number_of_messages 	43
scalar Network900.node170 	discovery_latency 	4776
scalar Network900.node170 	number_of_desired_resources 	20
scalar Network900.node170 	query_homogenity_rate 	33.333333333333
scalar Network900.node170 	qrecord_time 	63234.581192536
scalar Network900.node170 	discovery_resolution_rate 	66.666666666667
scalar Network900.node130 	rate_of_requesters 	1
scalar Network900.node130 	number_of_resources 	49500
scalar Network900.node130 	time_period 	10
scalar Network900.node130 	number_of_messages 	79
scalar Network900.node130 	discovery_latency 	4836
scalar Network900.node130 	number_of_desired_resources 	20
scalar Network900.node130 	query_homogenity_rate 	33.333333333333
scalar Network900.node130 	qrecord_time 	63756.366281709
scalar Network900.node130 	discovery_resolution_rate 	66.666666666667
scalar Network900.node10 	rate_of_requesters 	1
scalar Network900.node10 	number_of_resources 	49500
scalar Network900.node10 	time_period 	10
scalar Network900.node10 	number_of_messages 	234
scalar Network900.node10 	discovery_latency 	3564
scalar Network900.node10 	number_of_desired_resources 	20
scalar Network900.node10 	query_homogenity_rate 	33.333333333333
scalar Network900.node10 	qrecord_time 	64283.888938473
scalar Network900.node10 	discovery_resolution_rate 	100
scalar Network900.node810 	rate_of_requesters 	1
scalar Network900.node810 	number_of_resources 	49500
scalar Network900.node810 	time_period 	9
scalar Network900.node810 	number_of_messages 	51
scalar Network900.node810 	discovery_latency 	4860
scalar Network900.node810 	number_of_desired_resources 	20
scalar Network900.node810 	query_homogenity_rate 	33.333333333333
scalar Network900.node810 	qrecord_time 	64739.877583169
scalar Network900.node810 	discovery_resolution_rate 	66.666666666667
scalar Network900.node290 	rate_of_requesters 	1
scalar Network900.node290 	number_of_resources 	49500
scalar Network900.node290 	time_period 	8
scalar Network900.node290 	number_of_messages 	250
scalar Network900.node290 	discovery_latency 	4872
scalar Network900.node290 	number_of_desired_resources 	20
scalar Network900.node290 	query_homogenity_rate 	33.333333333333
scalar Network900.node290 	qrecord_time 	65084.87768131
scalar Network900.node290 	discovery_resolution_rate 	83.333333333333
scalar Network900.node590 	rate_of_requesters 	1
scalar Network900.node590 	number_of_resources 	49500
scalar Network900.node590 	time_period 	10
scalar Network900.node590 	number_of_messages 	16
scalar Network900.node590 	discovery_latency 	4956
scalar Network900.node590 	number_of_desired_resources 	20
scalar Network900.node590 	query_homogenity_rate 	33.333333333333
scalar Network900.node590 	qrecord_time 	65496.301662219
scalar Network900.node590 	discovery_resolution_rate 	66.666666666667
scalar Network900.node430 	rate_of_requesters 	1
scalar Network900.node430 	number_of_resources 	49500
scalar Network900.node430 	time_period 	10
scalar Network900.node430 	number_of_messages 	311
scalar Network900.node430 	discovery_latency 	4596
scalar Network900.node430 	number_of_desired_resources 	20
scalar Network900.node430 	query_homogenity_rate 	33.333333333333
scalar Network900.node430 	qrecord_time 	66099.565828677
scalar Network900.node430 	discovery_resolution_rate 	100
scalar Network900.node810 	rate_of_requesters 	1
scalar Network900.node810 	number_of_resources 	49500
scalar Network900.node810 	time_period 	10
scalar Network900.node810 	number_of_messages 	39
scalar Network900.node810 	discovery_latency 	4932
scalar Network900.node810 	number_of_desired_resources 	20
scalar Network900.node810 	query_homogenity_rate 	33.333333333333
scalar Network900.node810 	qrecord_time 	68467.867155703
scalar Network900.node810 	discovery_resolution_rate 	66.666666666667
scalar Network900.node290 	rate_of_requesters 	1
scalar Network900.node290 	number_of_resources 	49500
scalar Network900.node290 	time_period 	9
scalar Network900.node290 	number_of_messages 	257
scalar Network900.node290 	discovery_latency 	4980
scalar Network900.node290 	number_of_desired_resources 	20
scalar Network900.node290 	query_homogenity_rate 	33.333333333333
scalar Network900.node290 	qrecord_time 	70979.654283796
scalar Network900.node290 	discovery_resolution_rate 	83.333333333333
scalar Network900.node290 	rate_of_requesters 	1
scalar Network900.node290 	number_of_resources 	49500
scalar Network900.node290 	time_period 	10
scalar Network900.node290 	number_of_messages 	242
scalar Network900.node290 	discovery_latency 	4368
scalar Network900.node290 	number_of_desired_resources 	20
scalar Network900.node290 	query_homogenity_rate 	33.333333333333
scalar Network900.node290 	qrecord_time 	71219.779321812
scalar Network900.node290 	discovery_resolution_rate 	100
